$DATA1 SOURCE='HSPICE' VERSION='A-2008.03 32-BIT'
.TITLE 'ac simulation of an nmos input single-ended diff pair'
 gain             unity_gain       phase_margin     temper            
 alter#            
   42.6471         3.465e+08         78.8316          25.0000         
    1.0000         
