$DATA1 SOURCE='HSPICE' VERSION='A-2008.03 32-BIT'
.TITLE 'ac simulation of an nmos input single-ended diff pair'
 gain             unity_gain       phase_margin     temper            
 alter#            
   47.1525         1.742e+08         88.1505          25.0000         
    1.0000         
