***********************************************
**             TSMC RF SPICE MODEL            *
***********************************************
*
*    PROCESS  :  90nm Mixed-Signal SALICIDE (1P9M, 1.0V/2.5V) (CRN90G)
*    MODEL    :  BSIM4/BSIM3 ( V4.0/V3.24 )                           
*    DOC. NO. :  T-N90-CM-SP-013-P1                                     
*    VERSION  :  V1.2p1                                               
*    DATE     :  Apr. 25th, 2006                                      
*    HSPICE VERSION : H2004.03-SP1
*
*******************************************************************************
*                                                                             *
*  THIS MODEL LIB CONTAINS RF MODEL and BASEBAND model :                      *
*                                                                             *
*   A. RF model contains:                                                     *
*                                                                             *
*       1. 1.0V nominal Vt N/PMOS corner                                      *
*                                                                             *
*          a.LIB TT_RFMOS:Typical RF model                                    *
*          b.LIB FF_RFMOS:Fast N Fast P corner RF model                       *
*          c.LIB SS_RFMOS:Slow N Slow P corner RF model                       *
*          d.LIB SF_RFMOS:Slow N Fast P corner RF model                       *
*          e.LIB FS_RFMOS:Fast N Slow P corner RF model                       *
*          f.LIB MC_RFMOS:Monte-Carlo RF model                                *
*                                                                             *
*       2. 2.5V nominal Vt N/PMOS corner                                      *
*                                                                             *
*          a.LIB TT_RFMOS25:Typical RF model                                  *
*          b.LIB FF_RFMOS25:Fast N Fast P corner RF model                     *
*          c.LIB SS_RFMOS25:Slow N Slow P corner RF model                     *
*          d.LIB SF_RFMOS25:Slow N Fast P corner RF model                     *
*          e.LIB FS_RFMOS25:Fast N Slow P corner RF model                     *
*          f.LIB MC_RFMOS25:Monte-Carlo RF model                              *
*                                                                             *
*       3. MIM capacitor corner model                                         *
*                                                                             *
*          a.LIB TT_RFMIM:Typical model                                       *
*          b.LIB FF_RFMIM:Fast corner model                                   *
*          c.LIB SS_RFMIM:Slow corner model                                   *
*          d.LIB MC_RFMIM:Monte-Carlo RF model                                *
*                                                                             *
*       4. Inductor corner model                                              *
*                                                                             *
*          a.LIB TT_RFIND:Typical model                                       *
*          b.LIB FF_RFIND:Fast corner model                                   *
*          c.LIB SS_RFIND:Slow corner model                                   *
*          d.LIB MC_RFIND:Monte-Carlo RF model                                *
*                                                                             *
*                                                                             *
*       5. 1.0V MOS varactor corner model                                     *
*                                                                             *
*          a.LIB TT_RFMVAR:Typical model                                      *
*          b.LIB FF_RFMVAR:Fast corner model                                  *
*          c.LIB SS_RFMVAR:Slow corner model                                  *
*          d.LIB MC_RFMVAR:Monte-Carlo RF model                               *
*                                                                             *
*       6. 2.5V MOS varactor corner model                                     *
*                                                                             *
*          a.LIB TT_RFMVAR25:Typical model                                    *
*          b.LIB FF_RFMVAR25:Fast corner model                                *
*          c.LIB SS_RFMVAR25:Slow corner model                                *
*          d.LIB MC_RFMVAR25:Monte-Carlo RF model                             *
*                                                                             *
*       7. P+/NW Junction varactor corner model                               *
*                                                                             *
*          a.LIB TT_RFJVAR:Typical model                                      *
*          b.LIB FF_RFJVAR:Fast corner model                                  *
*          c.LIB SS_RFJVAR:Slow corner model                                  *
*          c.LIB MC_RFJVAR:Monte-Carlo RF model                               *
*                                                                             *
*       8. Resistor corner model                                              *
*                                                                             *
*          a. Salicided poly resistor                                         *
*                                                                             *
*             (a).LIB TT_RFRES_SA:Typical model                               *
*             (b).LIB FF_RFRES_SA:Fast corner model                           *
*             (c).LIB SS_RFRES_SA:Slow corner model                           *
*             (d).LIB MC_RFRES_SA:Monte-Carlo RF model                        *
*                                                                             *                                                                            *
*          b. Non-salicided poly resistor                                     *
*                                                                             *
*             (a).LIB TT_RFRES_RPO:Typical model                              *
*             (b).LIB FF_RFRES_RPO:Fast corner model                          *
*             (c).LIB SS_RFRES_RPO:Slow corner model                          *
*             (c).LIB MC_RFRES_RPO:Monte-Carlo RF model                       *
*                                                                             *
*       9. RFRTMOM corner model                                               *
*                                                                             *
*          a.LIB TT_RFRTMOM:Typical model                                     *
*          b.LIB FF_RFRTMOM:Fast corner model                                 *
*          c.LIB SS_RFRTMOM:Slow corner model                                 *
*                                                                             *
*                                                                             *
******************************************************************************
*                                                                             *
*       THIS Baseband MODEL LIB CONTAINS :                                    *
*                                                                             *
*       1.LIB TT                                                              *
*             SS                                                              *
*             FF                                                              *
*             SF                                                              *
*             FS                                                              *
*             MC                                                              *
*   ( 1.0V Standard-Vt devices with different geometric and corner models)    *
*                                                                             *
*       2.LIB TT_hvt                                                          *
*             SS_hvt                                                          *
*             FF_hvt                                                          *
*             SF_hvt                                                          *
*             FS_hvt                                                          *
*             MC_hvt                                                          *
*   ( 1.0V High-Vt devices with different geometric and corner models)        *
*                                                                             *
*       3.LIB TT_lvt                                                          *
*             SS_lvt                                                          *
*             FF_lvt                                                          *
*             SF_lvt                                                          *
*             FS_lvt                                                          *
*             MC_lvt                                                          *
*   ( 1.0V Low-Vt devices with different geometric and corner models)         *
*                                                                             *
*       4.LIB TT_25                                                           *
*             SS_25                                                           *
*             FF_25                                                           *
*             SF_25                                                           *
*             FS_25                                                           *
*             MC_25                                                           *
*   ( 2.5V devices with different geometric and corner models)                *
*                                                                             *
*       5.LIB TT_na                                                           *
*             SS_na                                                           *
*             FF_na                                                           *
*             SF_na                                                           *
*             FS_na                                                           *
*   ( 1.0V native devices with different geometric and corner models)         *
*                                                                             *
*       6.LIB TT_na25                                                         *
*             SS_na25                                                         *
*             FF_na25                                                         *
*             SF_na25                                                         *
*             FS_na25                                                         *
*   ( 2.5V native devices with different geometric and corner models)         *
*                                                                             *
*       7.LIB TT_BIP                                                          *
*             SS_BIP                                                          *
*             FF_BIP                                                          *
*             MC_BIP                                                          *
*        ( 1.0V P+/NW/PSUB 10x10, 5x5, and 2x2 vertical PNP bipolar )         *
*                                                                             *
*       8.LIB TT_BIP_NPN                                                      *
*             SS_BIP_NPN                                                      *
*             FF_BIP_NPN                                                      *
*             MC_BIP_NPN                                                      *
*        ( 1.0V N+/PW/DNW 10x10, 5x5, and 2x2 vertical NPN bipolar )          *
*                                                                             *
*       9.LIB TT_DIO                                                          *
*             SS_DIO                                                          *
*             FF_DIO                                                          *
*        ( 1.0V Standard-Vt P+/NW, N+/PW, and NW/PSUB diode )                 *
*                                                                             *
*      10.LIB TT_DIO_hvt                                                      *
*             SS_DIO_hvt                                                      *
*             FF_DIO_hvt                                                      *
*        ( 1.0V High-Vt P+/NW, and N+/PW diode )                              *
*                                                                             *
*      11.LIB TT_DIO_lvt                                                      *
*             SS_DIO_lvt                                                      *
*             FF_DIO_lvt                                                      *
*        ( 1.0V Low-Vt P+/NW, and N+/PW diode )                               *
*                                                                             *
*      12.LIB TT_DIO_25                                                       *
*             SS_DIO_25                                                       *
*             FF_DIO_25                                                       *
*        ( 2.5V P+/NW, and N+/PW diode )                                      *
*                                                                             *
*      13.LIB TT_DIO_na                                                       *
*             SS_DIO_na                                                       *
*             FF_DIO_na                                                       *
*        ( 1.0V native P+/NW, and N+/PW diode )                               *
*                                                                             *
*      14.LIB TT_DIO_na25                                                     *
*             SS_DIO_na25                                                     *
*             FF_DIO_na25                                                     *
*        ( 2.5V native P+/NW, and N+/PW diode )                               *
*                                                                             *
*      15.LIB TT_DIO_dnw                                                      *
*             SS_DIO_dnw                                                      *
*             FF_DIO_dnw                                                      *
*        ( PW/DNW and DNW/PSUB diode )                                        *
*                                                                             *
*      16.LIB TT_DIO_esd                                                      *
*             SS_DIO_esd                                                      *
*             FF_DIO_esd                                                      *
*        ( ESD diode )                                                        *
*                                                                             *
*      17.LIB TT_MOS_CAP                                                      *
*             SS_MOS_CAP                                                      *
*             FF_MOS_CAP                                                      *
*             MC_MOS_CAP                                                      *
*        ( 1.0V Standard-Vt NMOS in N-Well varactor )                         *
*                                                                             *
*      18.LIB TT_MOS_CAP_25                                                   *
*             SS_MOS_CAP_25                                                   *
*             FF_MOS_CAP_25                                                   *
*             MC_MOS_CAP_25                                                   *
*        ( 2.5V IO NMOS in N-Well varactor )                                  *
*                                                                             *
*      19.LIB TT_RES                                                          *
*             SS_RES                                                          *
*             FF_RES                                                          *
*             MC_RES                                                          *
*        ( Front-end 2T resistance )                                          *
*                                                                             *
*      20.LIB TT_MIM                                                          *
*             SS_MIM                                                          *
*             FF_MIM                                                          *
*             MC_MIM                                                          *
*        ( MIM CAPACITOR MODEL )                                              *
*                                                                             *
*      21.LIB TT_DISRES                                                       *
*             SS_DISRES                                                       *
*             FF_DISRES                                                       *
*             MC_DISRES                                                       *
*        ( Front-end 3T resistance )                                          *
*                                                                             *
*      22.LIB TT_RTMOM                                                        *
*             SS_RTMOM                                                        *
*             FF_RTMOM                                                        *
*        ( RTMOM MODEL )                                                      *
*                                                                             *
********************************************************************************
************************* WPE,Rg Model Usage *************************************
*
* NOTE: 
*  0. The model card includes gate resistance, contact-to-poly capacitance and WPE macro model.
*
*  1. The default value of ccoflag is 0, which means that the model will exclude contact-to-poly
*     capacitance.
*
*  2. Users could set ccoflag to 1 for pre-layout simulation where contact-to-poly capacitance
*     with maximum contact density is required. LPE tools should extract this capacitance 
*     during post-layout simulation.
*
*  3. Best approximation for gate resistance extraction is 1/3 of Rg, DC gate resistance.
*     The presim macro model has added Rg connected by an external node. For 
*     W/L < 30, the impact of Rg is not significant. It is recommended to split wide 
*     gate transistor to meet W/L < 30 for high precision designs.
*
*  4. Recommend customer to follow WPE design rule to avoid WPE effect. If customer need to use WPE 
*     model for validation, user can turn on the wpeflag for WPE. However CPU time would be the penalty.
*     
*  5. Rg effect is included in this model. User can use rgflag to turn on or turn off the effect.
*
*  6. Sample netlist for presim model card:
*     =========================
*     .temp 25.000
*     .param vdd=2.5
*     .lib 'TSMC_90nm.l' TT_25
*     Vgs g 0 -2.5
*     Vbs b 0 0.000
*     Vss0 s0 0 -0.000
*     Vds0 d0 0 -0.050
*     mdut0 d0 g s0 b pch_25 w=1.0u l=1.0u sa=0.82u sb=0.82u
*     Vss1 s1 0 -0.000
*     Vds1 d1 0 -0.050
*     xmdut1 d1 g s1 b pch_25_mac w=1.0u l=1.0u sa=0.82u sb=0.82u sc=20u wpeflag=0 rgflag=0
*     Vss2 s2 0 -0.000
*     Vds2 d2 0 -0.050
*     xmdut2 d2 g s2 b pch_25_mac w=1.0u l=1.0u sa=0.82u sb=0.82u sc=20u wpeflag=1 rgflag=1
*     .op
*     .dc vgs 0.525000 -2.50000 -0.010000
*     .end
*
************************************************************************************    
************************ Statistical Model Usage ***********************************
*
* Monte Carlo simulation can be done by setting "MONTE=val" in netlist. 
* It produces a number (val) of randomly generated values. 
* The following netlist is an example to show how to use statistical model in 
* HSPICE format for an Idsat 500-trail simulation :
*
*     .option  nopage nomod
*     +        newtol numdgt=7 relmos=1e-4 absmos=1e-8 relv=1e-4 relvdc=1e-4 ingold=2 gmindc=1e-18
*
*     .temp 25.000
*     .lib 'TSMC_90nm.l' stat
*     .lib 'TSMC_90nm.l' MC
*
*     Vgs g 0 1.0
*     Vss s 0 0
*     Vbs b 0 0
*     Vds1 d1 0 1.0
*     Vds2 d2 0 1.0
*     mdut1 d1 g s b nch w=10u l=0.1u
*     xmdut2 d2 g s b nch_mac w=10u l=0.1u sc=20u wpeflag=1 rgflag=1
*     .op
*     .dc vgs 0 1.000000 1.0000 MONTE=500
*     .end
*
*
***************************************************************
*                                                             *
*                  1.0V LOW VT DEVICE LIB                     *
*                                                             *
***************************************************************
*
******************************    LIBRARY OF TYPICAL CASE    ******************************
.LIB TT_RFMOS
.param
+parn1rf=AGAUSS(0,1,1)
+parn2rf=AGAUSS(0,1,1)
+parp1rf=AGAUSS(0,1,1)
+parp2rf=AGAUSS(0,1,1)
+toxnrf           = 2.33E-09            toxprf           = 2.50E-09 
+cjnrf            = 9.8000E-04          cjprf            = 1.1400E-03
+cjswnrf          = 4.0000E-11          cjswprf          = 6.0000E-11
+cjswgnrf         = 3.7000E-10          cjswgprf         = 3.6000E-10    
+cgonrf           = 1.2090E-10          cgoprf           = 2.568E-11
+cglnrf           = 6.5143E-11          cglprf           = 1.8957E-10
+dvthnrf          = 0                   dvthprf          = 0
+dlvthnrf         = 0                   dlvthprf         = 0
+dwvthnrf         = 0                   dwvthprf         = 0
+dpvthnrf         = 0                   dpvthprf         = 0
+ntoxnrf          = 1                   ntoxprf          = 1
+dxlnrf           = 0			dxlprf		 = 0             
+dxwnrf           = '0-0.5E-8'		dxwprf		 = '0-0.5E-8'
+dk2nrf           = 0                   dk2prf           = 0
+dpvoffnrf        = 0                   dlvoffprf	 = 0
+dpvsatnrf        = 0			dlcdscdprf       = 0
+dpeta0nrf        = 0			drdswprf         = 0                           
+cfnrf            = '1.38E-10+3.1E-11*0'
+cfprf            = '1.38E-10+3.1E-11*0'
.lib 'TSMC_90nm.l' RF_MOS
.ENDL TT_RFMOS

******************************  LIBRARY OF SNSP CORNER CASE  ******************************
.LIB SS_RFMOS
.param
+parn1rf=AGAUSS(0,1,1)
+parn2rf=AGAUSS(0,1,1)
+parp1rf=AGAUSS(0,1,1)
+parp2rf=AGAUSS(0,1,1)
+toxnrf           = 2.39E-09            toxprf           = 2.560E-09
+cjnrf            = 1.0486E-03		cjprf            = 1.2198E-03
+cjswnrf          = 4.2800E-11		cjswprf          = 6.4200E-11 
+cjswgnrf         = 3.9590E-10		cjswgprf         = 3.8520E-10
+cgonrf           = 1.1244E-10		cgoprf           = 2.3882E-11
+cglnrf           = 6.058E-11		cglprf           = 1.7630E-10
+dvthnrf          = 3.500E-02           dvthprf          = -3.000E-02
+dlvthnrf         = 1.3E-09             dlvthprf         = -1.3e-09
+dwvthnrf         = 3.0E-09             dwvthprf         = -1.0e-9
+dpvthnrf         = 1.4E-016            dpvthprf         = -1.4e-16
+ntoxnrf          = -0.8                ntoxprf          = -3.0
+dxlnrf           = 5.000E-09		dxlprf           = 5.000E-09 
+dxwnrf           = '-8.000E-9-0.5E-8'	dxwprf           = '-8.000E-9-0.5E-8'
+dk2nrf           = 8e-3                dk2prf           = 4.5e-3
+dpvoffnrf        = 0                   dlvoffprf	 = 0
+dpvsatnrf        = 0			dlcdscdprf       = 0
+dpeta0nrf        = 0			drdswprf         = -50                         
+cfnrf            = '1.283E-10+3.1E-11*0'
+cfprf            = '1.283E-10+3.1E-11*0'
.lib 'TSMC_90nm.l' RF_MOS
.ENDL SS_RFMOS

******************************  LIBRARY OF FNFP CORNER CASE  ******************************
.LIB FF_RFMOS
.param
+parn1rf=AGAUSS(0,1,1)
+parn2rf=AGAUSS(0,1,1)
+parp1rf=AGAUSS(0,1,1)
+parp2rf=AGAUSS(0,1,1)
+toxnrf           = 2.27E-09            toxprf           = 2.440E-09
+cjnrf            = 9.1140E-04		cjprf            = 1.0602E-03
+cjswnrf          = 3.7200E-11		cjswprf          = 5.5800E-11  
+cjswgnrf         = 3.4410E-10		cjswgprf         = 3.3480E-10
+cgonrf           = 1.2936E-10		cgoprf           = 2.7478E-11
+cglnrf           = 6.970E-11		cglprf           = 2.0284E-10
+dvthnrf          = -3.500E-02          dvthprf          = 3.000E-02
+dlvthnrf         = -1.7E-09            dlvthprf         = 16.4e-10
+dwvthnrf         = -3.0E-09            dwvthprf         = 1.0e-9
+dpvthnrf         = -1.3E-016           dpvthprf         = 0.7e-16
+ntoxnrf          = 2.7                 ntoxprf          = 5.0
+dxlnrf           = -5.000E-09		dxlprf           = -5.000E-09   
+dxwnrf           = '8.000E-9-0.5E-8'   dxwprf           = '8.000E-9-0.5E-8'
+dk2nrf           = -8e-3               dk2prf           = -4.5e-3
+dpvoffnrf        = -4e-17              dlvoffprf	 = -5.5e-10
+dpvsatnrf        = -5e-11		dlcdscdprf       = 0
+dpeta0nrf        = 3.0e-16		drdswprf         = 50                                        
+cfnrf            = '1.477E-10+3.1E-11*0'
+cfprf            = '1.477E-10+3.1E-11*0'
.lib 'TSMC_90nm.l' RF_MOS
.ENDL FF_RFMOS

******************************  LIBRARY OF SNFP CORNER CASE  ******************************
.LIB SF_RFMOS
.param
+parn1rf=AGAUSS(0,1,1)
+parn2rf=AGAUSS(0,1,1)
+parp1rf=AGAUSS(0,1,1)
+parp2rf=AGAUSS(0,1,1)
+A4NPrf=0 A1Nrf=0.8 A1Prf=-0.8 A2Nrf=0 A3Nrf=-1 A2Prf=0 A3Prf=1 
+toxnrf           = '2.33E-09 + 6.0000e-11*A4NPrf'	toxprf           = '2.50E-09 + 6.0000e-11*A4NPrf'
+cjnrf            = '9.8000E-04* (1+0.070*A1Nrf)'	cjprf            = '1.1400E-03* (1+0.070*A1Prf)'
+cjswnrf          = '4.0000E-11* (1+0.070*A1Nrf)'	cjswprf          = '6.0000E-11* (1+0.070*A1Prf)'
+cjswgnrf         = '3.7000E-10* (1+0.070*A1Nrf)'	cjswgprf         = '3.6000E-10* (1+0.070*A1Prf)'
+cgonrf           = '1.2090E-10* (1-0.070*A4NPrf)'	cgoprf           = '2.5680E-11 * (1-0.070*A4NPrf)'
+cglnrf           = '6.5143E-11* (1-0.070*A4NPrf)'	cglprf           = '1.8957e-10* (1-0.070*A4NPrf)'   
+dvthnrf          = '0.035*A1Nrf'			dvthprf          = '-0.03*A1Prf'
+dlvthnrf         = '1.7e-09*A1Nrf'			dlvthprf         = '-1.64e-09*A1Prf'
+dwvthnrf         = '3e-09*A1Nrf'			dwvthprf         = '-1e-09*A1Prf'
+dpvthnrf         = '1.3e-16*A1Nrf'			dpvthprf         = '-7e-17*A1Prf'
+ntoxnrf          = '1-1.7*A4NPrf'			ntoxprf          = '1-4*A4NPrf'
+dxlnrf           = '5e-09*A2Nrf'			dxlprf           = '5e-09*A2Prf'
+dxwnrf           = '0.8e-08*A3Nrf-0.5e-08'             dxwprf           = '0.8e-08*A3Prf-0.5e-08'
+dk2nrf           = '0.008*A1Nrf'			dk2prf           = '0.0045*A1Prf'
+dpvoffnrf        = '4e-17*A1Nrf'			dlvoffprf	 = '5.5e-10*A1Prf'
+dpvsatnrf        = '5e-11*A1Nrf'			dlcdscdprf       = 0
+dpeta0nrf        = '-3e-16*A1Nrf'			drdswprf         = '-50*A1Prf'                       
+cfnrf = '1.38E-10*(1-0.070*A4NPrf)+3.1E-11*0'
+cfprf = '1.38E-10*(1-0.070*A4NPrf)+3.1E-11*0'
.lib 'TSMC_90nm.l' RF_MOS
.ENDL SF_RFMOS

******************************  LIBRARY OF FNSP CORNER CASE  ******************************
.LIB FS_RFMOS
.param
+parn1rf=AGAUSS(0,1,1)
+parn2rf=AGAUSS(0,1,1)
+parp1rf=AGAUSS(0,1,1)
+parp2rf=AGAUSS(0,1,1)
+A4NPrf=0 A1Nrf=-0.8 A1Prf=0.8 A2Nrf=0 A3Nrf=1 A2Prf=0 A3Prf=-1 
+toxnrf           = '2.33E-09 + 6.0000e-11*A4NPrf'	toxprf           = '2.50E-09 + 6.0000e-11*A4NPrf'
+cjnrf            = '9.8000E-04* (1+0.070*A1Nrf)'	cjprf            = '1.1400E-03* (1+0.070*A1Prf)'
+cjswnrf          = '4.0000E-11* (1+0.070*A1Nrf)'	cjswprf          = '6.0000E-11* (1+0.070*A1Prf)'  
+cjswgnrf         = '3.7000E-10* (1+0.070*A1Nrf)'	cjswgprf         = '3.6000E-10* (1+0.070*A1Prf)'
+cgonrf           = '1.2090E-10* (1-0.070*A4NPrf)'	cgoprf           = '2.5680E-11 * (1-0.070*A4NPrf)'
+cglnrf           = '6.5143E-11* (1-0.070*A4NPrf)'	cglprf           = '1.8957e-10* (1-0.070*A4NPrf)'    
+dvthnrf          = '0.035*A1Nrf'			dvthprf          = '-0.03*A1Prf'
+dlvthnrf         = '1.7e-09*A1Nrf'			dlvthprf         = '-1.64e-09*A1Prf'
+dwvthnrf         = '3e-09*A1Nrf'			dwvthprf         = '-1e-09*A1Prf'
+dpvthnrf         = '1.3e-16*A1Nrf'			dpvthprf         = '-7e-17*A1Prf'
+ntoxnrf          = '1-1.7*A4NPrf'			ntoxprf          = '1-4*A4NPrf'
+dxlnrf           = '5e-09*A2Nrf'			dxlprf           = '5e-09*A2Prf'
+dxwnrf           = '0.8e-08*A3Nrf-0.5e-08'		dxwprf           = '0.8e-08*A3Prf-0.5e-08'
+dk2nrf           = '0.008*A1Nrf'			dk2prf           = '0.0045*A1Prf'
+dpvoffnrf        = '4e-17*A1Nrf'			dlvoffprf	 = '5.5e-10*A1Prf'
+dpvsatnrf        = '5e-11*A1Nrf'			dlcdscdprf       = 0
+dpeta0nrf        = '-3e-16*A1Nrf'			drdswprf         = '-50*A1Prf'                       
+cfnrf = '1.38E-10*(1-0.070*A4NPrf)+3.1E-11*0'
+cfprf = '1.38E-10*(1-0.070*A4NPrf)+3.1E-11*0'
.lib 'TSMC_90nm.l' RF_MOS
.ENDL FS_RFMOS
******************************  LIBRARY OF Monte-Carlo CASE  ******************************
.LIB MC_RFMOS
*.lib 'TSMC_90nm.l' stat
.param
+parn1rf=AGAUSS(0,1,1)
+parn2rf=AGAUSS(0,1,1)
+parp1rf=AGAUSS(0,1,1)
+parp2rf=AGAUSS(0,1,1)
+A1RF='par1*5.9805e+00' A2RF='par2*4.9159e+00' A3RF='par3*4.2096e+00' A4RF='par4*1.0472e+00'
+toxnrf            = '2.3300e-009+(-1.0264e-011)*A1RF+(-8.2063e-012)*A2RF+(-3.7448e-013)*A3RF+(1.3893e-012)*A4RF'
+cjnrf             = '9.8000e-004+(-9.1212e-006)*A1RF+(9.3542e-006)*A2RF+(-9.2792e-006)*A3RF+(-7.4608e-006)*A4RF'
+cjswnrf           = '4.0000e-011+(-3.7229e-013)*A1RF+(3.8180e-013)*A2RF+(-3.7874e-013)*A3RF+(-3.0452e-013)*A4RF'
+cjswgnrf          = '3.7000e-010+(-3.4437e-012)*A1RF+(3.5317e-012)*A2RF+(-3.5034e-012)*A3RF+(-2.8168e-012)*A4RF'
+cgonrf            = '1.2090e-010+(1.4473e-012)*A1RF+(1.1576e-012)*A2RF+(5.2869e-014)*A3RF+(-1.9607e-013)*A4RF'
+cglnrf            = '6.5143e-011+(7.8005e-013)*A1RF+(6.2372e-013)*A2RF+(2.8419e-014)*A3RF+(-1.0351e-013)*A4RF'
+dvthnrf           = '0.0000e+000+(-4.6537e-003)*A1RF+(4.7725e-003)*A2RF+(-4.7343e-003)*A3RF+(-3.8065e-003)*A4RF'
+dpvthnrf          = '0.0000e+000+(-1.7973e-017)*A1RF+(1.7833e-017)*A2RF+(-1.7434e-017)*A3RF+(-1.7778e-017)*A4RF'
+dxlnrf            = '0.0000e+000+(-9.2936e-010)*A1RF+(-1.1111e-009)*A2RF+(-8.7747e-011)*A3RF+(2.5928e-010)*A4RF'
+dxwnrf            = '-5.0000e-009+(1.5486e-009)*A1RF+(1.6139e-009)*A2RF+(1.7654e-009)*A3RF+(1.8650e-010)*A4RF'
+dlvthnrf          = '0.0000e+000+(-1.9851e-010)*A1RF+(2.2755e-010)*A2RF+(-2.3598e-010)*A3RF+(-3.9302e-011)*A4RF'
+dwvthnrf          = '0.0000e+000+(-3.9889e-010)*A1RF+(4.0907e-010)*A2RF+(-4.0580e-010)*A3RF+(-3.2628e-010)*A4RF'
+dk2nrf            = '0.0000e+000+(-1.0637e-003)*A1RF+(1.0909e-003)*A2RF+(-1.0821e-003)*A3RF+(-8.7007e-004)*A4RF'
+dpvoffnrf         = '0.0000e+000+(-2.5656e-018)*A1RF+(5.0287e-018)*A2RF+(-6.0132e-018)*A3RF+(1.0208e-017)*A4RF'
+dpvsatnrf         = '0.0000e+000+(-3.2070e-012)*A1RF+(6.2859e-012)*A2RF+(-7.5165e-012)*A3RF+(1.2761e-011)*A4RF'
+dpeta0nrf         = '0.0000e+000+(1.9242e-017)*A1RF+(-3.7716e-017)*A2RF+(4.5099e-017)*A3RF+(-7.6563e-017)*A4RF'
+dxlprf            = '0.0000e+000+(-9.2936e-010)*A1RF+(-1.1111e-009)*A2RF+(-8.7747e-011)*A3RF+(2.5928e-010)*A4RF'
+dxwprf            = '-5.0000e-009+(1.4253e-009)*A1RF+(1.9417e-009)*A2RF+(-1.4846e-009)*A3RF+(-1.0162e-009)*A4RF'
+toxprf            = '2.5000e-009+(-1.0264e-011)*A1RF+(-8.2063e-012)*A2RF+(-3.7448e-013)*A3RF+(1.3893e-012)*A4RF'
+cjprf             = '1.1400e-003+(-9.3786e-006)*A1RF+(9.5986e-006)*A2RF+(1.5357e-005)*A3RF+(-6.8240e-007)*A4RF'
+cjswprf           = '6.0000e-011+(-4.9361e-013)*A1RF+(5.0519e-013)*A2RF+(8.0826e-013)*A3RF+(-3.5916e-014)*A4RF'
+cjswgprf          = '3.6000e-010+(-2.9617e-012)*A1RF+(3.0311e-012)*A2RF+(4.8496e-012)*A3RF+(-2.1549e-013)*A4RF'
+cgoprf            = '2.5680e-011+(3.0757e-013)*A1RF+(2.4585e-013)*A2RF+(1.1213e-014)*A3RF+(-4.1610e-014)*A4RF'
+cglprf            = '1.8957e-010+(2.2701e-012)*A1RF+(1.8150e-012)*A2RF+(8.2820e-014)*A3RF+(-3.0727e-013)*A4RF'
+dvthprf           = '0.0000e+000+(3.5258e-003)*A1RF+(-3.6085e-003)*A2RF+(-5.7733e-003)*A3RF+(2.5654e-004)*A4RF'
+dlvthprf          = '0.0000e+000+(1.6934e-010)*A1RF+(-1.9365e-010)*A2RF+(-3.1048e-010)*A3RF+(-1.0973e-010)*A4RF'
+dwvthprf          = '0.0000e+000+(1.1753e-010)*A1RF+(-1.2028e-010)*A2RF+(-1.9244e-010)*A3RF+(8.5513e-012)*A4RF'
+dpvthprf          = '0.0000e+000+(1.3044e-017)*A1RF+(-9.1646e-018)*A2RF+(-1.4525e-017)*A3RF+(2.6076e-017)*A4RF'
+drdswprf          = '0.0000e+000+(5.8763e+000)*A1RF+(-6.0141e+000)*A2RF+(-9.6221e+000)*A3RF+(4.2757e-001)*A4RF'
+ntoxnrf           = '1.0000e+000+(2.9770e-001)*A1RF+(2.3145e-001)*A2RF+(9.1038e-003)*A3RF+(-2.9671e-003)*A4RF'
+ntoxprf           = '1.0000e+000+(6.8427e-001)*A1RF+(5.4709e-001)*A2RF+(2.4965e-002)*A3RF+(-9.2621e-002)*A4RF'
+dlvoffprf         = '0.0000e+000+(-2.6788e-011)*A1RF+(6.0304e-011)*A2RF+(9.7558e-011)*A3RF+(1.9548e-010)*A4RF'
+dk2prf            = '0.0000e+000+(-5.2887e-004)*A1RF+(5.4127e-004)*A2RF+(8.6599e-004)*A3RF+(-3.8481e-005)*A4RF'
+cfnrf             = '1.3800e-010+(1.6582e-012)*A1RF+(1.3199e-012)*A2RF+(5.9636e-014)*A3RF+(-2.2231e-013)*A4RF+3.1E-11*0'
+cfprf             = '1.3800e-010+(1.6582e-012)*A1RF+(1.3199e-012)*A2RF+(5.9636e-014)*A3RF+(-2.2231e-013)*A4RF+3.1E-11*0'
+dlcdscdprf        = '0.0000e+000'

.lib 'TSMC_90nm.l' RF_MOS
.ENDL MC_RFMOS
***************************************************************
*                                                             *
*                       2.5V DEVICE LIB                       *
*                                                             *
***************************************************************
******************************    LIBRARY OF TYPICAL CASE    ******************************
.LIB TT_RFMOS25
.param
+parn1rf_25=AGAUSS(0,1,1)
+parn2rf_25=AGAUSS(0,1,1)
+parp1rf_25=AGAUSS(0,1,1)
+parp2rf_25=AGAUSS(0,1,1)
+toxnrf_25	= 5.540e-09		toxprf_25	= 5.820e-09
+cjnrf_25	= 1.0800e-03		cjprf_25	= 1.0800e-03
+cjswnrf_25	= 8.2500e-11		cjswprf_25	= 6.8000e-11	
+cjswgnrf_25	= 1.8900e-10		cjswgprf_25	= 1.8800e-10
+cgonrf_25	= 1.0340e-11		cgoprf_25	= 0.9910e-11	 
+cglnrf_25	= 2.3940e-10		cglprf_25	= 2.7710e-10
+hdifnrf_25	= 1.1250e-07		hdifprf_25	= 1.1250e-07
+dvthnrf_25	= 0			dvthprf_25	= 0
+dpvthnrf_25	= 0			dpvthprf_25	= 0
+dxwnrf_25	= 0			dxwprf_25	= 0   
+dxlnrf_25	= 0			dxlprf_25	= 0
+drdswnrf_25	= 0            
+dla0nrf_25	= 0			dla0prf_25	= 0
+dlvoffnrf_25	= 0			dlvoffprf_25	= 0
+dleta0nrf_25	= 0			dleta0prf_25	= 0
+dlpclmnrf_25	= 0			dlpclmprf_25	= 0
+dk2nrf_25	= 0			dk2prf_25	= 0
+dlk2nrf_25	= 0			dlk2prf_25	= 0
+dlvsatnrf_25	= 0			dlvsatprf_25	= 0
+cfnrf_25	= '1.18E-10+3.0E-11*0'
+cfprf_25	= '1.18E-10+3.0E-11*0'

.lib 'TSMC_90nm.l' RF_MOS25
.ENDL TT_RFMOS25
******************************  LIBRARY OF SNSP CORNER CASE  ******************************
.LIB SS_RFMOS25
.param
+parn1rf_25=AGAUSS(0,1,1)
+parn2rf_25=AGAUSS(0,1,1)
+parp1rf_25=AGAUSS(0,1,1)
+parp2rf_25=AGAUSS(0,1,1)
+toxnrf_25	= 5.840e-09		toxprf_25	= 6.120e-09
+cjnrf_25	= 1.1556e-03		cjprf_25	= 1.1556e-03
+cjswnrf_25	= 8.8275e-11		cjswprf_25	= 7.2760e-11	
+cjswgnrf_25	= 2.0223e-10		cjswgprf_25	= 2.0116e-10
+cgonrf_25	= 9.6162e-12		cgoprf_25	= 9.2163e-12	 
+cglnrf_25	= 2.2264e-10		cglprf_25	= 2.5770e-10
+hdifnrf_25	= 1.1250e-07		hdifprf_25	= 1.1250e-07
+dvthnrf_25	= 0.0600		dvthprf_25	= -0.0560
+dpvthnrf_25	= 2.800e-15		dpvthprf_25	= -1.550e-15
+dxwnrf_25	= -1.20e-08		dxwprf_25	= -1.20e-08  
+dxlnrf_25	= 1.00e-08		dxlprf_25	= -1.00e-08
+drdswnrf_25	= 35.00         
+dla0nrf_25	= -7e-8			dla0prf_25	= 0  
+dlvoffnrf_25	= -1.5e-9		dlvoffprf_25	= -1.0e-9
+dleta0nrf_25	= -2.2e-10		dleta0prf_25	= 0      
+dlpclmnrf_25	= -15e-8		dlpclmprf_25	= -10e-8 
+dk2nrf_25	= 0.015			dk2prf_25	= 0.015  
+dlk2nrf_25	= 4e-9			dlk2prf_25	= 0      
+dlvsatnrf_25	= 0.9e-3		dlvsatprf_25	= 4e-3   
+cfnrf_25	= '1.097E-10+3.0E-11*0'
+cfprf_25	= '1.097E-10+3.0E-11*0'

.lib 'TSMC_90nm.l' RF_MOS25
.ENDL SS_RFMOS25
******************************  LIBRARY OF FNFP CORNER CASE  ******************************
.LIB FF_RFMOS25
.param
+parn1rf_25=AGAUSS(0,1,1)
+parn2rf_25=AGAUSS(0,1,1)
+parp1rf_25=AGAUSS(0,1,1)
+parp2rf_25=AGAUSS(0,1,1)
+toxnrf_25	= 5.240e-09		toxprf_25	= 5.520e-09  
+cjnrf_25	= 1.0044e-03		cjprf_25	= 1.0044e-03 
+cjswnrf_25	= 7.6725e-11		cjswprf_25	= 6.3240e-11 	
+cjswgnrf_25	= 1.7577e-10		cjswgprf_25	= 1.7484e-10 
+cgonrf_25	= 1.1064e-11		cgoprf_25	= 1.0604e-11 	 
+cglnrf_25	= 2.5616e-10		cglprf_25	= 2.9650e-10 
+hdifnrf_25	= 1.1250e-07		hdifprf_25	= 1.1250e-07 
+dvthnrf_25	= -0.0600		dvthprf_25	= 0.0560     
+dpvthnrf_25	= -3.000e-15		dpvthprf_25	= 1.550e-15
+dxwnrf_25	= 1.20e-08		dxwprf_25	= 1.20e-08
+dxlnrf_25	= -1.00e-08		dxlprf_25	= -1.00e-08
+drdswnrf_25	= -20.00         
+dla0nrf_25	= 7e-8			dla0prf_25	= 0 
+dlvoffnrf_25	= 1e-9			dlvoffprf_25	= 0	
+dleta0nrf_25	= 2.2e-10		dleta0prf_25	= 0     
+dlpclmnrf_25	= 12e-8			dlpclmprf_25	= 5e-8  
+dk2nrf_25	= -0.015		dk2prf_25	= -0.015
+dlk2nrf_25	= -4e-9			dlk2prf_25	= 0     
+dlvsatnrf_25	= -0.5e-3		dlvsatprf_25	= -1e-3 
+cfnrf_25	= '1.2626E-10+3.0E-11*0'
+cfprf_25	= '1.2626E-10+3.0E-11*0'

.lib 'TSMC_90nm.l' RF_MOS25
.ENDL FF_RFMOS25
******************************  LIBRARY OF SNFP CORNER CASE  ******************************
.LIB SF_RFMOS25
.param
+parn1rf_25=AGAUSS(0,1,1)
+parn2rf_25=AGAUSS(0,1,1)
+parp1rf_25=AGAUSS(0,1,1)
+parp2rf_25=AGAUSS(0,1,1)
+A1Nrf_25=0.8 A1Prf_25=-0.8 A2Nrf_25=0 A2Prf_25=0 A3Nrf_25=-0.5 A3Prf_25=0.5 A4Nrf_25=1 A4Prf_25=-1
+toxnrf_25	= '5.540E-09 + 3.0000e-10*A4Nrf_25'	toxprf_25	= '5.82e-09  + 3.0000e-10*A4Prf_25' 
+cjnrf_25	= '1.080E-03 * (1+0.070*A1Nrf_25)'	cjprf_25	= '0.00108   * (1+0.070*A1Prf_25)' 
+cjswnrf_25	= '8.250E-11 * (1+0.070*A1Nrf_25)'	cjswprf_25	= '6.8e-11   * (1+0.070*A1Prf_25)' 	
+cjswgnrf_25	= '1.890E-10 * (1+0.070*A1Nrf_25)'	cjswgprf_25	= '1.88e-10  * (1+0.070*A1Prf_25)' 
+cgonrf_25	= '1.034E-11 * (1-0.070*A4Nrf_25)'	cgoprf_25	= '9.91e-12  * (1-0.070*A4Prf_25)' 	 
+cglnrf_25	= '2.394E-10 * (1-0.070*A4Nrf_25)'	cglprf_25	= '2.771e-10 * (1-0.070*A4Prf_25)' 
+hdifnrf_25	= 1.125E-07				hdifprf_25	= 1.125e-07 
+dvthnrf_25	= '0.06*A1Nrf_25'			dvthprf_25	= '-0.056*A1Prf_25' 
+dpvthnrf_25	= '3e-15*A1Nrf_25'			dpvthprf_25	= '-1.55e-15*A1Prf_25'
+dxwnrf_25	= '1.2e-08*A3Nrf_25'			dxwprf_25	= '1.2e-08*A3Prf_25'
+dxlnrf_25	= '1e-08*A2Nrf_25'			dxlprf_25	= '1e-08*A2Prf_25'
+drdswnrf_25	= '20*A1Nrf_25'        
+dla0nrf_25	= '-7e-08*A1Nrf_25'			dla0prf_25	= 0
+dlvoffnrf_25	= '-1e-09*A1Nrf_25'			dlvoffprf_25	= 0
+dleta0nrf_25	= '-2.2e-10*A1Nrf_25'			dleta0prf_25	= 0     
+dlpclmnrf_25	= '-1.2e-07*A1Nrf_25'			dlpclmprf_25	= '-5e-08*A1Prf_25'     
+dk2nrf_25	= '0.015*A1Nrf_25'			dk2prf_25	= '0.015*A1Prf_25'        
+dlk2nrf_25	= '4e-09*A1Nrf_25'			dlk2prf_25	= 0        
+dlvsatnrf_25	= '0.0005*A1Nrf_25'			dlvsatprf_25	= '0.001*A1Prf_25'       
+cfnrf_25 = '1.180E-10*(1-0.070*A4Nrf_25) + 3.0E-11*0'
+cfprf_25 = '1.180E-10*(1-0.070*A4Prf_25) + 3.0E-11*0'

.lib 'TSMC_90nm.l' RF_MOS25
.ENDL SF_RFMOS25
******************************  LIBRARY OF FNSP CORNER CASE  ******************************
.LIB FS_RFMOS25
.param
+parn1rf_25=AGAUSS(0,1,1)
+parn2rf_25=AGAUSS(0,1,1)
+parp1rf_25=AGAUSS(0,1,1)
+parp2rf_25=AGAUSS(0,1,1)
+A1Nrf_25=-0.8  A1Prf_25=0.8 A2Nrf_25=0 A2Prf_25=0 A3Nrf_25=0.5 A3Prf_25=-0.5 A4Nrf_25=-1 A4Prf_25=1
+toxnrf_25	= '5.540E-09 + 3.0000e-10*A4Nrf_25'	toxprf_25	= '5.82e-09  + 3.0000e-10*A4Prf_25'
+cjnrf_25	= '1.080E-03 * (1+0.070*A1Nrf_25)'	cjprf_25	= '0.00108   * (1+0.070*A1Prf_25)'
+cjswnrf_25	= '8.250E-11 * (1+0.070*A1Nrf_25)'	cjswprf_25	= '6.8e-11   * (1+0.070*A1Prf_25)'
+cjswgnrf_25	= '1.890E-10 * (1+0.070*A1Nrf_25)'	cjswgprf_25	= '1.88e-10  * (1+0.070*A1Prf_25)'
+cgonrf_25	= '1.034E-11 * (1-0.070*A4Nrf_25)'	cgoprf_25	= '9.91e-12  * (1-0.070*A4Prf_25)'	 
+cglnrf_25	= '2.394E-10 * (1-0.070*A4Nrf_25)'	cglprf_25	= '2.771e-10 * (1-0.070*A4Prf_25)'
+hdifnrf_25	= 1.125E-07				hdifprf_25	= 1.125e-07
+dvthnrf_25	= '0.06*A1Nrf_25'			dvthprf_25	= '-0.056*A1Prf_25'
+dpvthnrf_25	= '3e-15*A1Nrf_25'			dpvthprf_25	= '-1.55e-15*A1Prf_25'
+dxwnrf_25	= '1.2e-08*A3Nrf_25'			dxwprf_25	= '1.2e-08*A3Prf_25'
+dxlnrf_25	= '1e-08*A2Nrf_25'			dxlprf_25	= '1e-08*A2Prf_25'
+drdswnrf_25	= '20*A1Nrf_25'
+dla0nrf_25	= '-7e-08*A1Nrf_25'			dla0prf_25	= 0
+dlvoffnrf_25	= '-1e-09*A1Nrf_25'			dlvoffprf_25	= 0
+dleta0nrf_25	= '-2.2e-10*A1Nrf_25'			dleta0prf_25	= 0
+dlpclmnrf_25	= '-1.2e-07*A1Nrf_25'			dlpclmprf_25	= '-5e-08*A1Prf_25'
+dk2nrf_25	= '0.015*A1Nrf_25'			dk2prf_25	= '0.015*A1Prf_25'
+dlk2nrf_25	= '4e-09*A1Nrf_25'			dlk2prf_25	= 0
+dlvsatnrf_25	= '0.0005*A1Nrf_25'			dlvsatprf_25	= '0.001*A1Prf_25'
+cfnrf_25 = '1.180E-10*(1-0.070*A4Nrf_25) + 3.0E-11*0'
+cfprf_25 = '1.180E-10*(1-0.070*A4Prf_25) + 3.0E-11*0'

.lib 'TSMC_90nm.l' RF_MOS25
.ENDL FS_RFMOS25
******************************  LIBRARY OF Monte-Carlo CASE  ******************************
.lib MC_RFMOS25
*.lib 'TSMC_90nm.l' stat
.param
+parn1rf_25=AGAUSS(0,1,1)
+parn2rf_25=AGAUSS(0,1,1)
+parp1rf_25=AGAUSS(0,1,1)
+parp2rf_25=AGAUSS(0,1,1)
+A1RF_25='par1*5.9981e+00' A2RF_25='par2*4.3156e+00' A3RF_25='par3*3.6829e+00' A4RF_25='par4*1.1056e+00'
+dvthnrf_25        = '0.0000e+000+(-9.8192e-003)*A1RF_25+(6.7959e-003)*A2RF_25+(2.0472e-003)*A3RF_25+(4.2742e-003)*A4RF_25'
+dpvthnrf_25       = '0.0000e+000+(-4.7680e-016)*A1RF_25+(3.4540e-016)*A2RF_25+(9.9578e-017)*A3RF_25+(2.6913e-016)*A4RF_25'
+drdswnrf_25       = '0.0000e+000+(-4.3353e+000)*A1RF_25+(1.8449e+000)*A2RF_25+(8.9091e-001)*A3RF_25+(-2.7320e+000)*A4RF_25'
+toxnrf_25         = '5.5400e-009+(-4.9874e-011)*A1RF_25+(1.3872e-011)*A2RF_25+(-8.1701e-011)*A3RF_25+(7.0315e-012)*A4RF_25'
+dxwnrf_25         = '0.0000e+000+(1.7421e-009)*A1RF_25+(8.9385e-010)*A2RF_25+(4.0158e-009)*A3RF_25+(-1.9599e-010)*A4RF_25'
+dxlnrf_25         = '0.0000e+000+(-1.2593e-009)*A1RF_25+(-1.5918e-009)*A2RF_25+(-2.9340e-009)*A3RF_25+(2.5052e-010)*A4RF_25'
+cjnrf_25          = '1.0800e-003+(-1.2425e-005)*A1RF_25+(8.5425e-006)*A2RF_25+(2.5863e-006)*A3RF_25+(5.4145e-006)*A4RF_25'
+cjswnrf_25        = '8.2500e-011+(-9.4515e-013)*A1RF_25+(6.5408e-013)*A2RF_25+(1.9709e-013)*A3RF_25+(4.0826e-013)*A4RF_25'
+cjswgnrf_25       = '1.8900e-010+(-2.1612e-012)*A1RF_25+(1.5000e-012)*A2RF_25+(4.5088e-013)*A3RF_25+(9.4028e-013)*A4RF_25'
+cgonrf_25         = '1.0340e-011+(1.2011e-013)*A1RF_25+(-3.3550e-014)*A2RF_25+(1.9713e-013)*A3RF_25+(-1.5581e-014)*A4RF_25'
+cglnrf_25         = '2.3940e-010+(2.7915e-012)*A1RF_25+(-7.7273e-013)*A2RF_25+(4.5631e-012)*A3RF_25+(-3.9582e-013)*A4RF_25'
+dla0nrf_25        = '0.0000e+000+(1.1456e-008)*A1RF_25+(-7.9286e-009)*A2RF_25+(-2.3884e-009)*A3RF_25+(-4.9866e-009)*A4RF_25'
+dlvoffnrf_25      = '0.0000e+000+(1.9906e-010)*A1RF_25+(-9.9252e-011)*A2RF_25+(-4.1070e-011)*A3RF_25+(6.7320e-011)*A4RF_25'
+dleta0nrf_25      = '0.0000e+000+(3.6004e-011)*A1RF_25+(-2.4918e-011)*A2RF_25+(-7.5063e-012)*A3RF_25+(-1.5672e-011)*A4RF_25'
+dlpclmnrf_25      = '0.0000e+000+(2.1763e-008)*A1RF_25+(-1.2751e-008)*A2RF_25+(-4.5114e-009)*A3RF_25+(-2.3499e-010)*A4RF_25'
+dlvsatnrf_25      = '0.0000e+000+(-1.1015e-004)*A1RF_25+(4.5422e-005)*A2RF_25+(2.2620e-005)*A3RF_25+(-7.5227e-005)*A4RF_25'
+dk2nrf_25         = '0.0000e+000+(-2.4548e-003)*A1RF_25+(1.6990e-003)*A2RF_25+(5.1179e-004)*A3RF_25+(1.0685e-003)*A4RF_25'
+dlk2nrf_25        = '0.0000e+000+(-6.5461e-010)*A1RF_25+(4.5306e-010)*A2RF_25+(1.3648e-010)*A3RF_25+(2.8495e-010)*A4RF_25'
+cfnrf_25          = '1.1800e-010+(1.3784e-012)*A1RF_25+(-3.7989e-013)*A2RF_25+(2.2488e-012)*A3RF_25+(-1.9650e-013)*A4RF_25+3.0E-11*0'
+toxprf_25         = '5.8200e-009+(-2.6781e-011)*A1RF_25+(-8.7756e-011)*A2RF_25+(-3.2207e-011)*A3RF_25+(1.7495e-011)*A4RF_25'
+dvthprf_25        = '0.0000e+000+(5.7161e-003)*A1RF_25+(8.8335e-003)*A2RF_25+(-9.3018e-003)*A3RF_25+(-5.5518e-003)*A4RF_25'
+cjprf_25          = '1.0800e-003+(-7.7167e-006)*A1RF_25+(-1.1925e-005)*A2RF_25+(1.2557e-005)*A3RF_25+(7.4949e-006)*A4RF_25'
+cjswprf_25        = '6.8000e-011+(-4.8587e-013)*A1RF_25+(-7.5085e-013)*A2RF_25+(7.9065e-013)*A3RF_25+(4.7190e-013)*A4RF_25'
+cjswgprf_25       = '1.8800e-010+(-1.3433e-012)*A1RF_25+(-2.0759e-012)*A2RF_25+(2.1859e-012)*A3RF_25+(1.3047e-012)*A4RF_25'
+cgoprf_25         = '9.9100e-012+(6.1945e-014)*A1RF_25+(2.0293e-013)*A2RF_25+(7.4473e-014)*A3RF_25+(-4.0558e-014)*A4RF_25'
+cglprf_25         = '2.7710e-010+(1.7320e-012)*A1RF_25+(5.6742e-012)*A2RF_25+(2.0824e-012)*A3RF_25+(-1.1314e-012)*A4RF_25'
+dpvthprf_25       = '0.0000e+000+(1.5821e-016)*A1RF_25+(2.4450e-016)*A2RF_25+(-2.5746e-016)*A3RF_25+(-1.5366e-016)*A4RF_25'
+dlvoffprf_25      = '0.0000e+000+(7.0816e-011)*A1RF_25+(2.8027e-011)*A2RF_25+(-1.3901e-011)*A3RF_25+(2.7711e-010)*A4RF_25'
+dlpclmprf_25      = '0.0000e+000+(8.6444e-009)*A1RF_25+(9.2884e-009)*A2RF_25+(-9.0002e-009)*A3RF_25+(8.8987e-009)*A4RF_25'
+dk2prf_25         = '0.0000e+000+(-1.5311e-003)*A1RF_25+(-2.3661e-003)*A2RF_25+(2.4915e-003)*A3RF_25+(1.4871e-003)*A4RF_25'
+dlvsatprf_25      = '0.0000e+000+(-3.1452e-004)*A1RF_25+(-2.4182e-004)*A2RF_25+(2.0781e-004)*A3RF_25+(-7.3220e-004)*A4RF_25'
+dxwprf_25         = '0.0000e+000+(1.2803e-009)*A1RF_25+(2.9264e-009)*A2RF_25+(3.0259e-009)*A3RF_25+(-4.0525e-010)*A4RF_25'
+dxlprf_25         = '0.0000e+000+(-1.2593e-009)*A1RF_25+(-1.5918e-009)*A2RF_25+(-2.9340e-009)*A3RF_25+(2.5052e-010)*A4RF_25'
+cfprf_25          = '1.1800e-010+(7.4263e-013)*A1RF_25+(2.4183e-012)*A2RF_25+(8.8609e-013)*A3RF_25+(-4.8459e-013)*A4RF_25+3.0E-11*0'

+hdifnrf_25        = '1.1250e-007'
+hdifprf_25        = '1.1250e-007'
+dla0prf_25        = '0.0000e+000'
+dleta0prf_25      = '0.0000e+000'
+dlk2prf_25        = '0.0000e+000'

.lib 'TSMC_90nm.l' RF_MOS25
.endl MC_RFMOS25

********************************************************
*********        MIM Corner Parameters       ***********
********************************************************
.LIB TT_RFMIM
.param
+ par_rfmim=AGAUSS(0,1,1)
+ l_mimfac        = 1.0
+ cmim_mimfac     = 1.0
+ cmim2p0_mimfac  = 1.0
+ cm7_mimfac      = 1.0
+ rctm_mimfac     = 1.0
+ cm5_mimfac      = 1.0
+ rsub_mimfac     = 1.0
+ csub_mimfac     = 1.0
.lib 'TSMC_90nm.l' RF_MIM
.ENDL TT_RFMIM

.LIB FF_RFMIM
.param
+ par_rfmim=AGAUSS(0,1,1)
+ l_mimfac        = 0.9762
+ cmim_mimfac     = 0.9
+ cmim2p0_mimfac  = 0.85
+ cm7_mimfac      = 0.926
+ rctm_mimfac     = 0.9
+ cm5_mimfac      = 0.931
+ rsub_mimfac     = 0.8
+ csub_mimfac     = 1.25
.lib 'TSMC_90nm.l' RF_MIM
.ENDL FF_RFMIM

.LIB SS_RFMIM
.param
+ par_rfmim=AGAUSS(0,1,1)
+ l_mimfac        = 1.0235
+ cmim_mimfac     = 1.1
+ cmim2p0_mimfac  = 1.15
+ cm7_mimfac      = 1.08
+ rctm_mimfac     = 1.1
+ cm5_mimfac      = 1.074
+ rsub_mimfac     = 1.2
+ csub_mimfac     = 0.833
.lib 'TSMC_90nm.l' RF_MIM
.ENDL SS_RFMIM

.LIB MC_RFMIM
.param
+ par_rfmim=AGAUSS(0,1,1)
+ l_mimfac        = 1.0
+ cmim_mimfac     = '1.0+0.025*mimpar1'
+ cmim2p0_mimfac  = '1.0+0.0375*mimpar2'
+ cm7_mimfac      = 1.0
+ rctm_mimfac     = 1.0
+ cm5_mimfac      = 1.0
+ rsub_mimfac     = 1.0
+ csub_mimfac     = 1.0
.lib 'TSMC_90nm.l' RF_MIM
.ENDL MC_RFMIM

********************************************************
************* Inductor Corner Parameters ***************
********************************************************
.LIB TT_RFIND
.param
+ c12_indfac=1.0
+ rm9_indfac=1.0
+ l_indfac=1.0
+ cm9_indfac=1.0
+ csub_indfac=1.0
+ rsub_indfac=1.0
.lib 'TSMC_90nm.l' RF_IND
.ENDL TT_RFIND

.LIB FF_RFIND
.param
+ c12_indfac=0.926
+ rm9_indfac=0.9
+ l_indfac=0.9762
+ cm9_indfac=0.913
+ csub_indfac=1.25
+ rsub_indfac=0.8
.lib 'TSMC_90nm.l' RF_IND
.ENDL FF_RFIND

.LIB SS_RFIND
.param
+ c12_indfac=1.081
+ rm9_indfac=1.1
+ l_indfac=1.0235
+ cm9_indfac=1.07
+ csub_indfac=0.8333
+ rsub_indfac=1.2
.lib 'TSMC_90nm.l' RF_IND
.ENDL SS_RFIND

.LIB MC_RFIND
.param
+par1_rfind=AGAUSS(0,2.3212e+000,2) par2_rfind=AGAUSS(0,7.7372e-001,2) par3_rfind=AGAUSS(0,1.1386e-001,2) 
+A1_rfind=par1_rfind A2_rfind=par2_rfind A3_rfind=par3_rfind 
+c12_indfac      = '1.0000e+000+(2.6673e-002)*A1_rfind+(1.0742e-002)*A2_rfind+(2.9276e-002)*A3_rfind'
+rm9_indfac      = '1.0000e+000+(2.2923e-002)*A1_rfind+(-7.5569e-002)*A2_rfind+(2.5545e-003)*A3_rfind'
+l_indfac        = '1.0000e+000+(8.0158e-003)*A1_rfind+(2.2836e-003)*A2_rfind+(4.4757e-003)*A3_rfind'
+cm9_indfac      = '1.0000e+000+(2.6646e-002)*A1_rfind+(7.6681e-003)*A2_rfind+(-1.3724e-002)*A3_rfind'
+csub_indfac     = '1.0000e+000+(-7.0497e-002)*A1_rfind+(-1.7888e-002)*A2_rfind+(1.2793e-001)*A3_rfind'
+rsub_indfac     = '1.0000e+000+(6.7780e-002)*A1_rfind+(1.9297e-002)*A2_rfind+(4.2380e-002)*A3_rfind'
.lib 'TSMC_90nm.l' RF_IND
.ENDL MC_RFIND

********************************************************
************* 1.0V MOS Varactor Corner Parameters ******
********************************************************
.LIB TT_RFMVAR
.param
+ l_mvfacrf = 1
+ rm_mvfacrf = 1
+ rsub_mvfacrf = 1
+ csub_mvfacrf  = 1
+ toxm_varrf=23.3  ndep0_varrf=1.1  pndep_varrf=1.2E-12 
+ fac_varrf=1.0 rs0_varrf=22.0 dxl_varrf=0 dxw_varrf=0
.lib 'TSMC_90nm.l' RF_MVAR
.ENDL TT_RFMVAR

.LIB FF_RFMVAR
.param
+ l_mvfacrf = 1.0235
+ rm_mvfacrf = 1.1
+ rsub_mvfacrf = 0.8
+ csub_mvfacrf  = 1.25
+ toxm_varrf=22.3  ndep0_varrf=1.305   pndep_varrf=1.4E-12 
+ fac_varrf=4.0 rs0_varrf=1.0 dxl_varrf=-5.0E-9 dxw_varrf=8E-9
.lib 'TSMC_90nm.l' RF_MVAR
.ENDL FF_RFMVAR

.LIB SS_RFMVAR
.param
+ l_mvfacrf = 0.9762
+ rm_mvfacrf = 0.9
+ rsub_mvfacrf = 1.2
+ csub_mvfacrf  = 0.833
+ toxm_varrf=24.3  ndep0_varrf=0.85   pndep_varrf=1.0E-12 
+ fac_varrf=0.32 rs0_varrf=250 dxl_varrf=5.0E-9 dxw_varrf=-8E-9
.lib 'TSMC_90nm.l' RF_MVAR
.ENDL SS_RFMVAR

.LIB MC_RFMVAR
*.lib 'TSMC_90nm.l' stat
.param
+random1_CAPrf=AGAUSS(0,0.22,4)
+random2_CAPrf=AGAUSS(0,0.18,4)
+random3_CAPrf=AGAUSS(0,0.05,4)
+A1_CAPrf='par1*5.9805e+00' A2_CAPrf='par2*4.9159e+00' A3_CAPrf='par3*4.2096e+00' A4_CAPrf='par4*1.0472e+00'
+ran_CAP1rf=random1_CAPrf
+ran_CAP2rf=random2_CAPrf
+ran_CAP3rf=random3_CAPrf
+ l_mvfacrf = '1+ran_CAP3rf'
+ rm_mvfacrf = '1+3*ran_CAP3rf'
+ rsub_mvfacrf = '1-6*ran_CAP3rf'
+ csub_mvfacrf  = '1+5*ran_CAP3rf'
+toxm_varrf        = '(2.3300e-009+(-1.0264e-011)*A1_CAPrf+(-8.2063e-012)*A2_CAPrf+(-3.7448e-013)*A3_CAPrf+(1.3893e-012)*A4_CAPrf)*1E10'
+dxl_varrf         = '0.0000e+000+(-9.2936e-010)*A1_CAPrf+(-1.1111e-009)*A2_CAPrf+(-8.7747e-011)*A3_CAPrf+(2.5928e-010)*A4_CAPrf'
+dxw_varrf         = '-5.0000e-009+(1.5486e-009)*A1_CAPrf+(1.6139e-009)*A2_CAPrf+(1.7654e-009)*A3_CAPrf+(1.8650e-010)*A4_CAPrf'
+ndep0_varrf       = '1.1 * (1 + ran_CAP1rf)'
+pndep_varrf       = '1.2E-12 * (1 + ran_CAP1rf)'
+fac_varrf         = 'pow((1+ran_CAP2rf),13.7)'
+rs0_varrf         = '22*pow((1-ran_CAP2rf),20.2)'
.lib 'TSMC_90nm.l'  RF_MVAR
.ENDL MC_RFMVAR

********************************************************
************* 2.5V MOS Varactor Corner Parameters ******
********************************************************
.LIB TT_RFMVAR25
.param
+ l_mvfacrf25 = 1
+ rm_mvfacrf25 = 1
+ rsub_mvfacrf25 = 1
+ csub_mvfacrf25  = 1
+ Cgmin_Varrf25= 1     dCg_Varrf25= 1     dxl_varrf25= 0     dxw_varrf25= 0
.lib 'TSMC_90nm.l' RF_MVAR25
.ENDL TT_RFMVAR25

.LIB FF_RFMVAR25
.param
+ l_mvfacrf25 = 1.0235
+ rm_mvfacrf25 = 1.1
+ rsub_mvfacrf25 = 0.8
+ csub_mvfacrf25  = 1.25
+ Cgmin_Varrf25= 1.08     dCg_Varrf25= 1.0361     dxl_varrf25= 1.0E-08     dxw_varrf25= 1.2E-08
.lib 'TSMC_90nm.l' RF_MVAR25
.ENDL FF_RFMVAR25

.LIB SS_RFMVAR25
.param
+ l_mvfacrf25 = 0.9762
+ rm_mvfacrf25 = 0.9
+ rsub_mvfacrf25 = 1.2
+ csub_mvfacrf25  = 0.833
+ Cgmin_Varrf25= 0.92     dCg_Varrf25= 0.9639     dxl_varrf25= -1.0E-08     dxw_varrf25= -1.2E-08
.lib 'TSMC_90nm.l' RF_MVAR25
.ENDL SS_RFMVAR25

.LIB MC_RFMVAR25
*.lib 'TSMC_90nm.l' stat
.param
+random_CAPrf25=AGAUSS(0,0.13,4)
+A1_CAPrf25='par1*5.9981e+00' A2_CAPrf25='par2*4.3156e+00' A3_CAPrf25='par3*3.6829e+00' A4_CAPrf25='par4*1.1056e+00'
+ l_mvfacrf25 = 1
+ rm_mvfacrf25 = 1
+ rsub_mvfacrf25 = 1
+ csub_mvfacrf25  = 1
+ dCg_Varrf25         = '1+((-4.9874e-011)*A1_CAPrf25+(1.3872e-011)*A2_CAPrf25+(-8.1701e-011)*A3_CAPrf25+(7.0315e-012)*A4_CAPrf25)/5.5400e-009'
+ dxl_varrf25         = '0.0000e+000+(-1.2593e-009)*A1_CAPrf25+(-1.5918e-009)*A2_CAPrf25+(-2.9340e-009)*A3_CAPrf25+(2.5052e-010)*A4_CAPrf25'
+ dxw_varrf25         = '0.0000e+000+(1.7421e-009)*A1_CAPrf25+(8.9385e-010)*A2_CAPrf25+(4.0158e-009)*A3_CAPrf25+(-1.9599e-010)*A4_CAPrf25'
+ Cgmin_Varrf25         = '1+random_CAPrf25'
.lib 'TSMC_90nm.l' RF_MVAR25
.ENDL MC_RFMVAR25

********************************************************
************* Xj Varactor Corner Parameters ************
********************************************************

.LIB TT_RFJVAR
.param
+CJ_fac= 1          CJSW_fac= 1         L_fac= 1         Rm_fac= 1                  
+Rsub_fac= 1        Csub_fac= 1         Rwell_fac= 1     Csti_fac= 1
.lib 'TSMC_90nm.l' RF_JVAR
.ENDL TT_RFJVAR

.LIB FF_RFJVAR
.param
+CJ_fac= 0.93          CJSW_fac= 0.93         L_fac= 0.9762         Rm_fac= 0.9                  
+Rsub_fac= 1.2         Csub_fac= 0.83333      Rwell_fac= 0.85       Csti_fac= 0.93
.lib 'TSMC_90nm.l' RF_JVAR
.ENDL FF_RFJVAR

.LIB SS_RFJVAR
.param
+CJ_fac= 1.07         CJSW_fac= 1.07        L_fac= 1.0235          Rm_fac= 1.1                  
+Rsub_fac= 0.8        Csub_fac= 1.25        Rwell_fac= 1.15        Csti_fac= 1.07
.lib 'TSMC_90nm.l' RF_JVAR
.ENDL SS_RFJVAR

.LIB MC_RFJVAR
.param
+random_JVAR1=AGAUSS(0,0.07,3)
+random_JVAR2=AGAUSS(0,0.07,3)
+JVAR_1=random_JVAR1
+JVAR_2=random_JVAR2
+CJ_fac= '1+JVAR_1'         
+CJSW_fac= '1+JVAR_2'       
+L_fac= '1 + 0.3*JVAR_1'        
+Rm_fac= '1 + 1.4*JVAR_1'                
+Rsub_fac= '1 - 3*JVAR_1'       
+Csub_fac= '1 + 2.4*JVAR_1'   
+Rwell_fac= '1 + 2.4*JVAR_1'     
+Csti_fac= '1+JVAR_2' 
.lib 'TSMC_90nm.l' RF_JVAR
.ENDL MC_RFJVAR

********************************************************
***************    RES Corner Parameters  **************
********************************************************
.LIB TT_RFRES_RPO
.param
+par_rporf=AGAUSS(0,1,1)
+r_rppolyworf = 402.10 rend_rppolyworf = 86.7u  dxw_rppolyworf = 0.0 dxl_rppolyworf = 0.0
+rpol_fac=1   rpocox_fac=1   rporsub_fac=1  rpocsub_fac=1
.lib 'TSMC_90nm.l' RF_RES_RPO
.ENDL TT_RFRES_RPO

.LIB SS_RFRES_RPO
.param
+par_rporf=AGAUSS(0,1,1)
+r_rppolyworf='402.1*1.15'     rend_rppolyworf='86.7u*1.6'     dxw_rppolyworf = 0.035u dxl_rppolyworf = 0.0u
+rpol_fac=1.0235   rpocox_fac=1.111   rporsub_fac=0.8  rpocsub_fac=1.25
.lib  'TSMC_90nm.l' RF_RES_RPO
.ENDL SS_RFRES_RPO

.LIB FF_RFRES_RPO
.param
+par_rporf=AGAUSS(0,1,1)
+r_rppolyworf = '402.1*0.85'   rend_rppolyworf='86.7u*0.4'      dxw_rppolyworf = -0.035u dxl_rppolyworf = 0.0u
+rpol_fac=0.9762   rpocox_fac=0.9074   rporsub_fac=1.2  rpocsub_fac=0.833
.lib  'TSMC_90nm.l' RF_RES_RPO
.ENDL FF_RFRES_RPO

.LIB MC_RFRES_RPO
.param
+par_rporf=AGAUSS(0,1,1)
+par_rprf=var_rp
+par_rendpporf=var_rendppo
+par_dwpporf  =var_dwppo
+r_rppolyworf = '402.10* (1+0.15/4*par_rprf)'
+rend_rppolyworf = '86.7u*(1+0.2116*par_rendpporf)'
+dxl_rppolyworf = 0.0
+dxw_rppolyworf = '0.0258u*par_dwpporf'
+rpol_fac=1   rpocox_fac=1   rporsub_fac=1  rpocsub_fac=1
.lib 'TSMC_90nm.l' RF_RES_RPO
.ENDL MC_RFRES_RPO

**********************************************************************
.LIB TT_RFRES_SA
.param
+ par_sarf=AGAUSS(0,1,1)
+r_rppolylrf  = 10.77  r_rppolysrf  = 10.77     dxw_rppolysrf = 0.0
+sal_fac=1    sacox_fac=1    sarsub_fac=1   sacsub_fac =1
.lib 'TSMC_90nm.l' RF_RES_SA
.ENDL TT_RFRES_SA

.LIB SS_RFRES_SA
.param
+ par_sarf=AGAUSS(0,1,1)
+r_rppolylrf  = '10.77 +2.15 ' r_rppolysrf  = '10.77 +2.26'  dxw_rppolysrf = 0.012u
+sal_fac=1.0235    sacox_fac=1.111    sarsub_fac=0.8   sacsub_fac =1.25
.lib  'TSMC_90nm.l' RF_RES_SA
.ENDL SS_RFRES_SA

.LIB FF_RFRES_SA
.param
+ par_sarf=AGAUSS(0,1,1)
+r_rppolylrf  = '10.77 -2.15 ' r_rppolysrf  = '10.77 -2.26'   dxw_rppolysrf = -0.03u
+sal_fac=0.9762    sacox_fac=0.9074    sarsub_fac=1.2   sacsub_fac =0.833
.lib  'TSMC_90nm.l' RF_RES_SA
.ENDL FF_RFRES_SA

.LIB MC_RFRES_SA
.param
+par_sarf=AGAUSS(0,1,1)
+par_rpsarf=var_rpsa
+par_dwsapporf=var_dwsappo
+r_rppolylrf  = '10.77+ 2.15/4*par_rpsarf'
+r_rppolysrf  = '10.77+ 2.26/4*par_rpsarf'
+dxl_rppolysrf = 0.0
+dxw_rppolysrf = '0.0069u*par_dwsapporf'
+sal_fac=1    sacox_fac=1    sarsub_fac=1   sacsub_fac =1
.lib  'TSMC_90nm.l' RF_RES_SA
.ENDL MC_RFRES_SA

***********************************************************************
*             	              RFRTMOM                                   *
***********************************************************************
************* Library of typical corner *******************************
.LIB TT_RFRTMOM
.param
+ RTMOM_momfac= 1 	
+ l_momfac=1
+ r_momfac=1
+ par_rfmom=AGAUSS(0,1,1)
.lib 'TSMC_90nm.l' RFRTMOM
.ENDL TT_RFRTMOM

************* Library of slow corner **********************************
.LIB SS_RFRTMOM
.param
+ RTMOM_momfac= 1.25	
+ l_momfac=1.0235
+ r_momfac=1.3
+ par_rfmom=AGAUSS(0,1,1)
.lib 'TSMC_90nm.l' RFRTMOM
.ENDL SS_RFRTMOM

************* Library of fast corner **********************************
.LIB FF_RFRTMOM
.param
+ RTMOM_momfac= 0.75 	
+ l_momfac=0.9762
+ r_momfac=0.7
+ par_rfmom=AGAUSS(0,1,1)
.lib 'TSMC_90nm.l' RFRTMOM
.ENDL FF_RFRTMOM
**************************************************************************************************
*
*            1) 1.0V MOS MODEL :
*
*
*              .lib RF_MOS : Typical model
*
*              Model name       NF               L (um)             Wf (um)
*                            low   high        low    high      low    high
*            -----------------------------------------------------------------
*              nmos_rf        1     64         0.1    0.24      1.0    5.0
*            -----------------------------------------------------------------
*              pmos_rf        1     64         0.1    0.24      1.0    5.0
*            -----------------------------------------------------------------
*            **NF: Finger number
*            **Wf: Width per finger
*
**************************************************************************************************
.lib  RF_MOS

.subckt nmos_rf D G S B lr=0.1E-6 wr=1.0E-6 nr=1 mismatchflag=0
.param
+temp1=parn1rf  temp2=parn2rf
+fac1 = '0.756823*temp1+0.653620*temp2'
+fac2 = '0.756823*temp1-0.653620*temp2'
.param  lef='lr-3.5E-08'
+       wef='wr+1.5e-8'
+       geo_fac ='1/sqrt(nr*lef*wef*1e12)'
+       vthmisnrf = '2.402E-03*geo_fac*fac1*mismatchflag'
+       dlmisnrf = '1.834E-03*geo_fac*lef*fac2*mismatchflag'
+       dwmisnrf = '-1.834E-03*geo_fac*wef*fac2*mismatchflag'
+       toxmisnrf = '1.834E-03*geo_fac*toxnrf*fac2*mismatchflag'
.param Lspace=0.28u
.param Ledge=1.45u
.param Ledgeeff=0.52u
.param Lsti=0.65u
.param Wsti=1.35u
.param Rod=970
.param Rsti=1720
.param Ns='int(nr/2+1)'
.param Nd='int((nr+1)/2)'
.param rsx='(0.04*(lr+Lspace)*1e6*(2*Ns+1/Ns-3) +1.12/Ns + 0.5016)/(wr*1e6)'
.param rdx='0.0098*(lr+Lspace)*1e6*(Nd+2/Nd) + 0.238*(wr*1e6+1.92)/Nd + 0.126/(1.07+(Nd-1)*(lr+Lspace)*1e6)'
.param rgx='((0.7*(wr*1e6+0.72)/(lr*1e6-0.02)+7.85)/nr+nr*(0.000874*wr*1e6+0.0122)+0.0295*wr*1e6+0.266*lr*1e6+1740*lr/nr/wr+6.06)'
.param Lod='nr*(lr+Lspace)+2*Ledge-Lspace'
.param rbx='(1+2.5e-8/lr)*(Rod*(Lod+4*Ledge-2*Lspace)/12+Rsti*Lsti/2)*(Rod*wr/12+Rsti*Wsti/2)/((Lod-2*Ledge+Lspace+2.8e-6)*(Rod*(Lod+4*Ledge-2*Lspace)/12+Rsti*Lsti/2)+wr*(Rod*wr/12+Rsti*Wsti/2))'
.param rdbx='6.1+220/(wr*nr*1e6)+38/nr'
.param cgsx='(0.6*nr*(lr+Lspace)*1e6/(0.1*wr*1e6+1.64)+0.16*wr*1e6+0.71)*1e-15'
.param cgdx='(0.09*nr*(lr+Lspace)*1e6+0.07*nr+0.18)*1e-15'
.param cdsx='(0.34+0.0302*nr*wr/(lr+Lspace)+1.1*nr*(lr+Lspace)/(wr+9.8e-6))*1e-15'
.param sax='2*nr*(lr+Lspace)/log((Ledge-Lspace-lr/2+nr*(lr+Lspace))*(Ledge-Lspace-lr/2+(nr+1)*(lr+Lspace))/(Ledge-Lspace-lr/2)/(Ledge+lr/2))-lr/2'
.param sdiofa='(Ns-2)*wr*Lspace+2*wr*Ledgeeff+(nr-int(nr/2)*2)*wr*(Lspace-Ledgeeff)'
.param sdiofp='(Ns-2)*Lspace*2+4*Ledgeeff+(nr-int(nr/2)*2)*2*(Lspace-Ledgeeff)'
.param ddiofa='int(nr/2)*wr*Lspace+(nr-int(nr/2)*2)*wr*Ledgeeff'
.param ddiofp='int(nr/2)*Lspace*2+(nr-int(nr/2)*2)*(2*Ledgeeff)'
.param sdiogp='wr*nr+(2-(nr-int(nr/2)*2))*wr'
.param ddiogp='wr*nr+(nr-int(nr/2)*2)*wr'
.param noix = '3.7829-12.429*lr*1e6'
**********************
RG  G GI   R=rgx
RS  S SI   R=rsx
RD  D DI   R=rdx
**********************
CGS_M GI SI C=cgsx
CGD_M GI DI C=cgdx
CDS_M DI SI C=cdsx
***** Diodes  *******
DSS  SB  SI  ndio_rf_f AREA=sdiofa PJ=sdiofp
DDD  DB  DI  ndio_rf_f AREA=ddiofa PJ=ddiofp 
DSG  SB  SI  ndio_rf_g AREA=1E-15  PJ=sdiogp  
DDG  DB  DI  ndio_rf_g AREA=1E-15  PJ=ddiogp
*****************************************************************************
RB    B  BI  R=rbx	tc1=3.70e-3 tc2=9.64e-6
Rdb  DB  BI  R=rdbx	tc1=3.70e-3 tc2=9.64e-6
Rsb  SB  BI  R=rdbx	tc1=3.70e-3 tc2=9.64e-6
M0 DI GI SI BI nch_rf L=lr W=wr m=nr AD=0 AS=0 PD=0 PS=0 SA=sax SB=sax

.MODEL nch_rf.1 NMOS	(	LMIN     = 1.0E-07
+LMAX     = '2.4100E-07'         
+WMIN     = '1.0000E-06'         
+WMAX     = '5.0100E-06'	LEVEL    = 54                       
+VERSION  = 4.4                 BINUNIT  = 2                   PARAMCHK = 1                   
+MOBMOD   = 0                   CAPMOD   = 2                   IGCMOD   = 1                   
+IGBMOD   = 1                   DIOMOD   = 1                   RDSMOD   = 0                   
+RBODYMOD = 0                   RGATEMOD = 0                   PERMOD   = 1                   
+ACNQSMOD = 0                   TRNQSMOD = 0                   TNOM     = 25                  
+TOXE     = '(toxnrf+toxmisnrf)'            TOXM     = '(toxnrf+toxmisnrf)'            DTOX     = 3e-010           
+EPSROX   = 3.9                 WINT     = 6e-009              LINT     = 2.5e-009            
+LL       = 0                   WL       = 0                   LLN      = 1                   
+WLN      = 1                   LW       = 0                   WW       = 0                   
+LWN      = 1                   WWN      = 1                   LWL      = 0                   
+WWL      = 0                   LLC      = 0                   WLC      = 0                   
+LWC      = 0                   WWC      = 0                   LWLC     = 0                   
+WWLC     = 0                   XL       = '-3.5E-08+(dxlnrf+dlmisnrf)'   XW       = '1.5e-8+(dxwnrf+dwmisnrf)'
+VTH0     = '0.22744278+(dvthnrf+vthmisnrf)'
+WVTH0    = '5.5738939e-009+dwvthnrf'
+LVTH0    = '0+dlvthnrf'        PVTH0    = '0+dpvthnrf'        K1       = 0.32433703          
+LK1      = -2.4740667e-010     WK1      = -1.2374044e-008     PK1      = 2.4748089e-015      
+K2       = '-0.011014366+dk2nrf' 
+LK2      = 1.2028732e-009      WK2      = 3.4532661e-009      
+PK2      = -6.9065323e-016     K3       = -2.9571429          LK3      = 1.5428571e-008      
+K3B      = 1.2                 W0       = -5e-008             DVT0     = 13.9                
+DVT1     = 1.25                DVT2     = 0                   DVT0W    = 0                   
+DVT1W    = 0                   DVT2W    = 0                   DSUB     = 0.5                 
+MINV     = 0                   VOFFL    = 0                   DVTP0    = 4e-007              
+DVTP1    = 1.5714286           LDVTP1   = 8.5714286e-008      LPE0     = 4.45e-008           
+LPEB     = 0                   XJ       = 1.5e-007            NGATE    = 4e020               
+NDEP     = 8.3687e017          NSD      = 1e020               PHIN     = 0                   
+CDSC     = 0                   CDSCB    = 0                   CDSCD    = 0                   
+CIT      = -0.00012285714      LCIT     = 2.2457143e-010      VOFF     = -0.11586017        
+LVOFF    = -2.4718229e-009     WVOFF    = -1.6403173e-008     PVOFF    = '1.318624e-015+dpvoffnrf'       
+NFACTOR  = 0.5                 ETA0     = 0.22133733          WETA0    = -1.3377345e-008
+PETA0    = '0+dpeta0nrf'
+ETAB     = -0.1                U0       = 0.045463996         LU0      = -5.1444e-010        
+WU0      = -1.2300788e-008     PU0      = 5.1598332e-016      UA       = -6.284e-010       
+UB       = 2.2915951e-018      LUB      = -9.1553714e-027     WUB      = -1.0877056e-024     
+PUB      = 4.185198e-032       UC       = 2.4114338e-010      LUC      = -4.1075238e-019     
+WUC      = -1.3447417e-016     PUC      = 4.1087561e-024      VSAT     = 114000
+PVSAT    = '0+dpvsatnrf'
+A0       = 2.375               AGS      = 0.95                A1       = 0                   
+A2       = 1                   B0       = 0                   B1       = 0                   
+KETA     = -0.044142857        LKETA    = 3.4285714e-009      DWG      = 0                   
+DWB      = 0                   PCLM     = 0.84                PDIBLC1  = 0                   
+PDIBLC2  = 1.4285714e-005      LPDIBLC2 = 1.7142857e-011      PDIBLCB  = 0                   
+DROUT    = 0                   PVAG     = 1.5                 DELTA    = 0.0075              
+PSCBE1   = 9.264e008           PSCBE2   = 1e-020              FPROUT   = 200                 
+PDITS    = 0                   PDITSD   = 0                   PDITSL   = 0                   
+RSH      = 10.5                RDSW     = 140                 PRWG     = 0                   
+PRWB     = 0                   WR       = 1                   ALPHA0   = 0                   
+ALPHA1   = 0.03                BETA0    = 8.7
***** Gate-Induced Drain Leakage Model
+AGIDL    = 9e-008              BGIDL    = 2.3e009             CGIDL    = 0.5
+EGIDL    = 0.53
***** Gate Direct Tunnnel Current Model
+AIGBACC  = 0.01134             BIGBACC  = 0.003249            CIGBACC  = 0.1416              
+NIGBACC  = 4.05                AIGBINV  = 0.35                BIGBINV  = 0.03                
+CIGBINV  = 0.006               EIGBINV  = 1.1                 NIGBINV  = 1                   
+AIGC     = 0.010347143         LAIGC    = -9.4285714e-012     BIGC     = 0.001525            
+CIGC     = 0                   AIGSD    = 0.0083547333        LAIGSD   = 5.716e-012          
+WAIGSD   = 9.5552467e-011      PAIGSD   = -5.733148e-018      BIGSD    = 0.0004021           
+CIGSD    = 0.001463            NIGC     = 1                   POXEDGE  = 1                   
+PIGCD    = 2.3                 NTOX     = 'ntoxnrf'           DLCIG    = 2.5e-009
+TOXREF   = 3e-009
***** Charge and Capacitance Parameters
+CGSO     = 'cgonrf'            CGDO     = 'cgonrf'            CGBO     = 0            
+CGSL     = 'cglnrf'            CGDL     = 'cglnrf'                          
+CLC      = 1e-007              CLE      = 0.6                 CF       = 'cfnrf'                      
+CKAPPAS  = 0.6                 ACDE     = 1.2                 MOIN     = 12.6                
+NOFF     = 1.686               VOFFCV   = '-0.010'
+DLC      = '2.0e-08'           DWC      = 0                   XPART    = 0
***** Temperature Dependence Parameters
+KT1      = -0.2624             
+LKT1     = -1.62e-009          KT1L     = 0                   KT2      = -0.04464            
+UTE      = -1.5502921          LUTE     = 1.1143371e-008      WUTE     = 7.437167e-008       
+PUTE     = -1.7199444e-015     UA1      = 2.684e-009          UB1      = -3.673e-018         
+UC1      = -6.421e-011         PRT      = 0                   AT       = 35357.143           
+LAT      = 0.0019285714
+TPB      = 1.00E-03            TCJ      = 7.32E-04            TPBSW    = 1.90E-03            
+TCJSW    = 3.57E-04            TPBSWG   = 1.90E-03            TCJSWG   = 3.57E-04            
+XTIS     = 3
***** Source/Drain Junction Diode Model
+JSS      = 1.77E-07            JSWS     = 4.23E-13            
+JSWGS    = 9E-12               NJS      = 1                   IJTHSFWD = 0.01                
+IJTHSREV = 0.01                BVS      = 10                  XJBVS    = 1                   
+PBS      = 0.5                 CJS      = 'cjnrf'             MJS      = 0.25                
+PBSWS    = 0.8                 CJSWS    = 'cjswnrf'           MJSWS    = 0.01                
+PBSWGS   = 0.78                CJSWGS   = 'cjswgnrf'          MJSWGS   = 0.52                
***** Gate Electrode Resistance Model
+DMCG     = 9.25e-008           DMCI     = 9.25e-008           
+DMDG     = 0                   DMCGT    = 0                   DWJ      = 0                   
+XGW      = 0                   XGL      = 0                   RSHG     = 0.1
+NGCON    = 1                   XRCRG1   = 12                  XRCRG2   = 1
***** Substrate Resistance Network
+GBMIN    = 1e-012              RBPB     = 50                  RBPD     = 50                  
+RBPS     = 50                  RBDB     = 50                  RBSB     = 50
***** LOD Stress Effect Model 
+SAREF    = 0.63E-6             SBREF    = 0.63E-6
+KVSAT    = 0.20                WLOD     = 0.8E-6              TKU0     = 0.01
+KU0      = -7.36E-8            LLODKU0  = 1                   WLODKU0  = 1
+LKU0     = 4.027E-7            WKU0     = 8E-7                PKU0     = -2.0E-13
+KVTH0    = 3.5E-9              STK2     = 1.35E-9             STETA0   = 0
+LKVTH0   = -2.68E-11           WKVTH0   = 1.5E-6              PKVTH0   = 0
+LLODVTH  = 1                   WLODVTH  = 1                   LODK2    = 0.5
+LODETA0  = 1
***** Noise Model
+FNOIMOD  = 1                   NOIA     = 4.2926E+41          NOIB     = 1.612E+24
+NOIC     = 8.75                EM       = 1.192E+07           EF       = 0.8841
+TNOIMOD  = 0   		NTNOI    = noix           )

.MODEL ndio_rf_f D (                                           LEVEL  = 3
+ IS     =  1.77E-07            IKR    = 1E10                  
+ N      =  1.02                BV     = 10.1                  IBV    = 0.03
+ JSW    =  4.23E-13            CJ     = 'cjnrf'               PJ     = 8.4E-4
+ MJ     =  0.25                FC     = 0                     CJSW   = 'cjswnrf'
+ AREA   =  3.92E-8             MJSW   = 0.01                  TLEVC  = 1
+ CTA    =  7.32E-04            CTP    = 3.57E-04              
+ TCV    =  -1.00E-03           TLEV   = 1                     XTI    = 3
+ EG     =  1.17                PHP    = 0.8                   PB     = 0.5
+ IK     =  1E20                TPB    = 1.00E-03              TREF   = 25
+ TPHP   =  1.90E-03            FCS    = 0                  )

.MODEL ndio_rf_g D (                                           LEVEL  = 3
+ IS     =  1.77E-07            IKR    = 1E10                  
+ N      =  1.02                BV     = 10.1                  IBV    = 0.03
+ JSW    =  4.23E-13            CJ     = 'cjnrf'               PJ     = 8.4E-4
+ MJ     =  0.25                FC     = 0                     CJSW   = 'cjswgnrf'
+ AREA   =  3.92E-8             MJSW   = 0.52                  TLEVC  = 1
+ CTA    =  7.32E-04            CTP    = 3.57E-04              
+ TCV    =  -1.00E-03           TLEV   = 1                     XTI    = 3
+ EG     =  1.17                PHP    = 0.78                  PB     = 0.5
+ IK     =  1E20                TPB    = 1.00E-03              TREF   = 25
+ TPHP   =  1.90E-03            FCS    = 0                  )

.ENDS nmos_rf

.subckt pmos_rf D G S B lr=0.1E-6 wr=1.0E-6 nr=1 mismatchflag=0
.param
+temp1=parp1rf  temp2=parp2rf
+fac1 = '0.798567*temp1+0.601906*temp2'
+fac2 = '0.798567*temp1-0.601906*temp2'
.param  lef='lr-3.5E-8'
+       wef='wr+1.5E-8'
+       geo_fac ='1/sqrt(nr*lef*wef*1e12)'
+       vthmisprf = '2.035E-03*geo_fac*fac1*mismatchflag'
+       dlmisprf = '1.886E-03*geo_fac*lef*fac2*mismatchflag'
+       dwmisprf = '-1.886E-03*geo_fac*wef*fac2*mismatchflag'
+       toxmisprf = '1.886E-03*geo_fac*toxprf*fac2*mismatchflag'
.param Lspace=0.28u
.param Ledge=1.45u
.param Ledgeeff=0.52u
.param Lsti=0.65u
.param Wsti=1.35u
.param Rod=330
.param Rsti=550
.param Ns='int(nr/2+1)'
.param Nd='int((nr+1)/2)'
.param rsx='(0.04*(lr+Lspace)*1e6*(2*Ns+1/Ns-3) +1.12/Ns + 0.5016)/(wr*1e6)'
.param rdx='(0.0098*(lr+Lspace)*1e6*(Nd+2/Nd) + 0.238*(wr*1e6+1.92)/Nd + 0.126/(1.07+(Nd-1)*(lr+Lspace)*1e6))'
.param rgx='((0.7*(wr*1e6+0.72)/(lr*1e6-0.02)+7.85)/nr+nr*(0.000874*wr*1e6+0.0122)+0.0295*wr*1e6+0.266*lr*1e6+2476*lr/nr/wr+2.753)'
.param Lod='nr*(lr+Lspace)+2*Ledge-Lspace'
.param rbx='(1+2.5e-8/lr)*(Rod*(Lod+4*Ledge-2*Lspace)/12+Rsti*Lsti/2)*(Rod*wr/12+Rsti*Wsti/2)/((Lod-2*Ledge+Lspace+2.8e-6)*(Rod*(Lod+4*Ledge-2*Lspace)/12+Rsti*Lsti/2)+wr*(Rod*wr/12+Rsti*Wsti/2))'
.param rdbx='5.8+120/(wr*nr*1e6)+29/nr'
.param cgsx='(0.6*nr*(lr+Lspace)*1e6/(0.1*wr*1e6+1.64)+0.16*wr*1e6+0.71)*1e-15'
.param cgdx='(0.09*nr*(lr+Lspace)*1e6+0.07*nr+0.18)*1e-15'
.param cdsx='(0.34+0.0302*nr*wr/(lr+Lspace)+1.1*nr*(lr+Lspace)/(wr+9.8e-6))*1e-15'
.param sax='2*nr*(lr+Lspace)/log((Ledge-Lspace-lr/2+nr*(lr+Lspace))*(Ledge-Lspace-lr/2+(nr+1)*(lr+Lspace))/(Ledge-Lspace-lr/2)/(Ledge+lr/2))-lr/2'
.param sdiofa='(Ns-2)*wr*Lspace+2*wr*Ledgeeff+(nr-int(nr/2)*2)*wr*(Lspace-Ledgeeff)'
.param sdiofp='(Ns-2)*Lspace*2+4*Ledgeeff+(nr-int(nr/2)*2)*2*(Lspace-Ledgeeff)'
.param ddiofa='int(nr/2)*wr*Lspace+(nr-int(nr/2)*2)*wr*Ledgeeff'
.param ddiofp='int(nr/2)*Lspace*2+(nr-int(nr/2)*2)*(2*Ledgeeff)'
.param sdiogp='wr*nr+(2-(nr-int(nr/2)*2))*wr'
.param ddiogp='wr*nr+(nr-int(nr/2)*2)*wr'
.param noix = '6.917-22.57*lr*1e6'
**********************
RG  G GI   R=rgx
RS  S SI   R=rsx
RD  D DI   R=rdx
**********************
CGS_M GI SI C=cgsx
CGD_M GI DI C=cgdx
CDS_M DI SI C=cdsx
***** Diodes  ********
DSS  SI  SB  pdio_rf_f AREA=sdiofa PJ=sdiofp
DDD  DI  DB  pdio_rf_f AREA=ddiofa PJ=ddiofp 
DSG  SI  SB  pdio_rf_g AREA=1E-15  PJ=sdiogp  
DDG  DI  DB  pdio_rf_g AREA=1E-15  PJ=ddiogp
*****************************************************************************
RB    B  BI  R=rbx	tc1=3.74e-3 tc2=9.10e-6
Rdb  DB  BI  R=rdbx	tc1=3.74e-3 tc2=9.10e-6
Rsb  SB  BI  R=rdbx	tc1=3.74e-3 tc2=9.10e-6
M0 DI GI SI BI pch_rf L=lr W=wr M=nr AD=0 AS=0 PD=0 PS=0 SA=sax SB=sax

.MODEL pch_rf.1  PMOS	(	LMIN     = 1.000E-07
+LMAX     = '2.4100E-07'         
+WMIN     = '1.0000E-06'
+WMAX     = '5.0100E-06'	LEVEL    = 54                       
+VERSION  = 4.4                 BINUNIT  = 2                   PARAMCHK = 1                   
+MOBMOD   = 0                   CAPMOD   = 2                   IGCMOD   = 1                   
+IGBMOD   = 1                   DIOMOD   = 1                   RDSMOD   = 0                   
+RBODYMOD = 0                   RGATEMOD = 0                   PERMOD   = 1                   
+ACNQSMOD = 0                   TRNQSMOD = 0                   TNOM     = 25                  
+TOXE     = '(toxprf+toxmisprf)'            TOXM     = '(toxprf+toxmisprf)'            DTOX     = 5.25e-010        
+EPSROX   = 3.9                 WINT     = 5e-009              LINT     = 2.5e-009            
+LL       = 0                   WL       = 0                   LLN      = 1                   
+WLN      = 1                   LW       = 0                   WW       = 0                   
+LWN      = 1                   WWN      = 1                   LWL      = 0                   
+WWL      = 0                   LLC      = 0                   WLC      = 0                   
+LWC      = 0                   WWC      = 0                   LWLC     = 0                   
+WWLC     = 0                                             
+XL       = '-3.5E-8+(dxlprf+dlmisprf)'    XW       = '1.5E-8+(dxwprf+dwmisprf)'   
+VTH0     = '-0.17846119+(dvthprf+vthmisprf)'
+LVTH0    = '1.0269714e-009+dlvthprf'
+WVTH0    = '1.7556393e-009+dwvthprf'
+PVTH0    = '1.3023651e-015+dpvthprf'
+K1       = 0.1623              K2       = 0.035348786         LK2      = -2.6975714e-010     
+WK2      = -2.3461725e-009     PK2      = 4.692345e-016       K3       = -0.58               
+K3B      = 0.8                 W0       = 0                   DVT0     = 10                  
+DVT1     = 1.71                DVT2     = 0.0928              DVT0W    = 0                   
+DVT1W    = 0                   DVT2W    = 0                   DSUB     = 0.5                 
+MINV     = 0                   VOFFL    = 0                   DVTP0    = 0                   
+DVTP1    = 0                   LPE0     = 2.805e-007          LPEB     = 1e-007              
+XJ       = 1.7000001e-007      NGATE    = 8e019               NDEP     = 1.7200001e017       
+NSD      = 1e020               PHIN     = 0                   CDSC     = 0                   
+CDSCB    = 0                   CDSCD    = 0                   LCDSCD   = '0+dlcdscdprf'        
+CIT      = -0.0008977381       LCIT     = 3.5721429e-010      WCIT     = 1.8354411e-009      
+PCIT     = -1.4364321e-016     VOFF     = -0.11342636	       LVOFF    = '-2.9155286e-009+dlvoffprf'     
+WVOFF    = -4.4529396e-009     PVOFF    = 2.4993919e-015      NFACTOR  = 0.47954762          
+LNFACTOR = 4.8557143e-008      WNFACTOR = -3.6708821e-007     PNFACTOR = 2.8728643e-014      
+ETA0     = 0.15168929          LETA0    = -3.6678571e-009     WETA0    = -4.5487018e-008     
+PETA0    = 2.3940536e-015      ETAB     = -0.0097142857       LETAB    = -2.0571429e-009     
+U0       = 0.0094954024        LU0      = 6.8498571e-012      WU0      = -9.6879368e-010     
+PU0      = -1.5772025e-016     UA       = -8.2932574e-010     LUA      = 2.7318314e-017      
+WUA      = 1.6348194e-016      PUA      = -2.342342e-023      UB       = 2.6535202e-018      
+LUB      = 9.8032857e-027      WUB      = 3.9102875e-026      PUB      = -4.4912445e-032     
+UC       = 6.6109786e-011      LUC      = 1.1098043e-017      WUC      = 5.6930594e-017      
+PUC      = -1.1386119e-023     VSAT     = 120000              A0       = 3.62                
+AGS      = 3.2548857           LAGS     = 7.7022286e-007      WAGS     = 2.6238827e-006      
+PAGS     = -5.2477654e-013     A1       = 0                   A2       = 1                   
+B0       = 0                   B1       = 0                   KETA     = -0.23782679         
+LKETA    = 1.3485357e-008      WKETA    = -1.3167295e-008     PKETA    = 2.6334589e-015      
+DWG      = 0                   DWB      = 0                   PCLM     = 0.64285714          
+LPCLM    = -2.6571429e-008     PDIBLC1  = 0                   PDIBLC2  = 0.005               
+PDIBLCB  = 0                   DROUT    = 0                   PVAG     = 0                   
+DELTA    = 0.02                PSCBE1   = 9.264e008           PSCBE2   = 1e-020              
+FPROUT   = 1000                PDITS    = 0                   PDITSD   = 0                   
+PDITSL   = 0                   RSH      = 9.68                RDSW     = '210+drdswprf'        
+PRWG     = 0                   PRWB     = 0                   WR       = 1                   
+ALPHA0   = 0                   ALPHA1   = 0.06                BETA0    = 12
***** Gate-Induced Drain Leakage Model
+AGIDL    = 9e-008              BGIDL    = 2.3e009             CGIDL    = 0.5                 
+EGIDL    = 0.53                
***** Gate Direct Tunnnel Current Model
+AIGBACC  = 0.01069             BIGBACC  = 0.003132            CIGBACC  = 0.1498
+NIGBACC  = 4.049               AIGBINV  = 0.35                BIGBINV  = 0.03
+CIGBINV  = 0.006               EIGBINV  = 1.1                 NIGBINV  = 1
+AIGC     = 0.00606             BIGC     = 0.0007625           CIGC     = 1e-010
+AIGSD    = 0.0045821833        WAIGSD   = 7.820575e-011       BIGSD    = 0
+CIGSD    = 0.002267            NIGC     = 1                   POXEDGE  = 1
+PIGCD    = 2.3                 NTOX     = 'ntoxprf'           DLCIG    = 2.5e-009
+TOXREF   = 3e-009
***** Charge and Capacitance Parameters
+CGSO     = 'cgoprf'            CGDO     = 'cgoprf'            CGBO     = 0
+CGSL     = 'cglprf'            CGDL     = 'cglprf'  
+CLC      = 1e-007              CLE      = 0.6                 CF       = 'cfprf'
+CKAPPAS  = 0.6                 ACDE     = 1.2                 MOIN     = 11.09
+NOFF     = 2.175               VOFFCV   = '-0.012'
+DLC      = '2.0e-08'           DWC      = 0                   XPART    = 0                   
***** Temperature Dependence Parameters
+KT1      = -0.25631429         LKT1     = -2.0571429e-009     KT1L     = 0                   
[...]
rend1 ns n2 'Rend0/mf/w/scale*tface*(1+pvce1*(tanh(pvce2*abs(v(ns,n2))+pvce3)-tanh(pvce3)))' 
r1 n2 nm 'Rsh/mf*(l*scale-dl)/(4.0*(w*scale-dw))*tfacp*(1+pvcp1*(tanh(pvcp2*abs(v(n2,n1)/(l*scale-dl))+pvcp3)-tanh(pvcp3)))'
r2 nm nn 'Rsh/mf*(l*scale-dl)/(4.0*(w*scale-dw))*tfacp*(1+pvcp1*(tanh(pvcp2*abs(v(n2,n1)/(l*scale-dl))+pvcp3)-tanh(pvcp3)))'
r3 nn nx 'Rsh/mf*(l*scale-dl)/(4.0*(w*scale-dw))*tfacp*(1+pvcp1*(tanh(pvcp2*abs(v(n2,n1)/(l*scale-dl))+pvcp3)-tanh(pvcp3)))'
r4 nx n1 'Rsh/mf*(l*scale-dl)/(4.0*(w*scale-dw))*tfacp*(1+pvcp1*(tanh(pvcp2*abs(v(n2,n1)/(l*scale-dl))+pvcp3)-tanh(pvcp3)))'
rend2 n1 ne 'Rend0/mf/w/scale*tface*(1+pvce1*(tanh(pvce2*abs(v(n1,ne))+pvce3)-tanh(pvce3)))'
c1 body n2 'mf*(Ca*((w*scale-0.02u)*l*scale/5.0)*1e12+2*Cf*l*scale/5.0*1e6)'
c2 body nm 'mf*(Ca*((w*scale-0.02u)*l*scale/5.0)*1e12+2*Cf*l*scale/5.0*1e6)'
c3 body nn 'mf*(Ca*((w*scale-0.02u)*l*scale/5.0)*1e12+2*Cf*l*scale/5.0*1e6)'
c4 body nx 'mf*(Ca*((w*scale-0.02u)*l*scale/5.0)*1e12+2*Cf*l*scale/5.0*1e6)'
c5 body n1 'mf*(Ca*((w*scale-0.02u)*l*scale/5.0)*1e12+2*Cf*l*scale/5.0*1e6)'

.ends rppolywo_dis

***********************************     N+diff w/i silicide resistor     ***********************************
.subckt rnodl_m n2 n1 body lr=l wr=w mf=1 scale=1 mismatchflag=0
.param geo_fac ='1/sqrt(mf*lr*scale*wr*scale*1e12)'
.param factmis='0.00666*geo_fac*par_disres*mismatchflag'
.param rsh='rnl*(1+factmis)'

.param dw=0.0032u pvc1 = 4.91E-07   pvc2 = 1.99E-12   ptc1 = 2.85E-03   ptc2 = -2.29E-06 pt='temper'
.param tfac='1.0+ptc1*(pt-25.0)+ptc2*(pt-25.0)*(pt-25)'

r1 n2 nm 'rsh/mf*lr*scale/(4.0*(wr*scale-dw))*(1+pvc1*abs((v(n2,n1)/lr/scale))+pvc2*(v(n2,n1)/lr/scale)*(v(n2,n1)/lr/scale))*tfac'
r2 nm nn 'rsh/mf*lr*scale/(4.0*(wr*scale-dw))*(1+pvc1*abs((v(n2,n1)/lr/scale))+pvc2*(v(n2,n1)/lr/scale)*(v(n2,n1)/lr/scale))*tfac'
r3 nn nx 'rsh/mf*lr*scale/(4.0*(wr*scale-dw))*(1+pvc1*abs((v(n2,n1)/lr/scale))+pvc2*(v(n2,n1)/lr/scale)*(v(n2,n1)/lr/scale))*tfac'
r4 nx n1 'rsh/mf*lr*scale/(4.0*(wr*scale-dw))*(1+pvc1*abs((v(n2,n1)/lr/scale))+pvc2*(v(n2,n1)/lr/scale)*(v(n2,n1)/lr/scale))*tfac'
d1 body n2 ndio area='mf*((wr*scale-dw)*lr*scale/5.0)' pj='mf*((wr*scale-dw)+2.0*lr*scale/5.0)'
d2 body nm ndio area='mf*((wr*scale-dw)*lr*scale/5.0)' pj='mf*2.0*lr*scale/5.0'
d3 body nn ndio area='mf*((wr*scale-dw)*lr*scale/5.0)' pj='mf*2.0*lr*scale/5.0'
d4 body nx ndio area='mf*((wr*scale-dw)*lr*scale/5.0)' pj='mf*2.0*lr*scale/5.0'
d5 body n1 ndio area='mf*((wr*scale-dw)*lr*scale/5.0)' pj='mf*((wr*scale-dw)+2.0*lr*scale/5.0)'

.ends rnodl_m

.subckt rnods_m n2 n1 body lr=l wr=w mf=1 scale=1 mismatchflag=0
.param geo_fac ='1/sqrt(mf*lr*scale*wr*scale*1e12)'
.param factmis='0.00666*geo_fac*par_disres*mismatchflag'
.param rsh='rns*(1+factmis)'

.param dw='0.0032u+dxw_rns' pvc1 = 4.77E-07   pvc2 = 7.63E-13   ptc1 = 3.10E-03   ptc2 = 3.96E-07 pt='temper'
.param tfac='1.0+ptc1*(pt-25.0)+ptc2*(pt-25.0)*(pt-25)'
 
r1 n2 nm 'rsh/mf*lr*scale/(4.0*(wr*scale-dw))*(1+pvc1*abs((v(n2,n1)/lr/scale))+pvc2*(v(n2,n1)/lr/scale)*(v(n2,n1)/lr/scale))*tfac'
r2 nm nn 'rsh/mf*lr*scale/(4.0*(wr*scale-dw))*(1+pvc1*abs((v(n2,n1)/lr/scale))+pvc2*(v(n2,n1)/lr/scale)*(v(n2,n1)/lr/scale))*tfac'
r3 nn nx 'rsh/mf*lr*scale/(4.0*(wr*scale-dw))*(1+pvc1*abs((v(n2,n1)/lr/scale))+pvc2*(v(n2,n1)/lr/scale)*(v(n2,n1)/lr/scale))*tfac'
r4 nx n1 'rsh/mf*lr*scale/(4.0*(wr*scale-dw))*(1+pvc1*abs((v(n2,n1)/lr/scale))+pvc2*(v(n2,n1)/lr/scale)*(v(n2,n1)/lr/scale))*tfac'
d1 body n2 ndio area='mf*((wr*scale-dw)*lr*scale/5.0)' pj='mf*((wr*scale-dw)+2.0*lr*scale/5.0)'
d2 body nm ndio area='mf*((wr*scale-dw)*lr*scale/5.0)' pj='mf*2.0*lr*scale/5.0'
d3 body nn ndio area='mf*((wr*scale-dw)*lr*scale/5.0)' pj='mf*2.0*lr*scale/5.0'
d4 body nx ndio area='mf*((wr*scale-dw)*lr*scale/5.0)' pj='mf*2.0*lr*scale/5.0'
d5 body n1 ndio area='mf*((wr*scale-dw)*lr*scale/5.0)' pj='mf*((wr*scale-dw)+2.0*lr*scale/5.0)'
 
.ends rnods_m

***********************************     N+diff w/o silicide resistor     ***********************************
.subckt rnodwo_m ns ne body lr=l wr=w mf=1 scale=1 mismatchflag=0
.param geo_fac ='1/sqrt(mf*lr*scale*wr*scale*1e12)'
.param factmis='0.01707*geo_fac*par_disres*mismatchflag'
.param Rsh='rnwo*(1+factmis)' Rend0='rend_rnwo*(1+factmis)'

.param dl='0.0+dxl_rnwo' 
.param dw='0.027u+dxw_rnwo'  
.param pt='temper'
.param pvce1=-6.89E-002 pvce2=1.116e+003 pvce3=-1.817e-001 ptce1=1.25e-003 ptce2=2.5e-006
.param pvcp1=-2.955E-001 pvcp2=-8.04e-006 pvcp3=-2.449 ptcp1=1.512e-003 ptcp2=1.099e-006
.param tface='1.0+ptce1*(pt-25.0)+ptce2*(pt-25.0)*(pt-25.0)'
.param tfacp='1.0+ptcp1*(pt-25.0)+ptcp2*(pt-25.0)*(pt-25.0)'

rend1 ns n2 'Rend0/mf/wr/scale*tface*(1+pvce1*(tanh(pvce2*abs(v(ns,n2))+pvce3)-tanh(pvce3)))' 
r1 n2 nm 'Rsh/mf*(lr*scale-dl)/(4.0*(wr*scale-dw))*tfacp*(1+pvcp1*(tanh(pvcp2*abs(v(n2,n1)/(lr*scale-dl))+pvcp3)-tanh(pvcp3)))'
r2 nm nn 'Rsh/mf*(lr*scale-dl)/(4.0*(wr*scale-dw))*tfacp*(1+pvcp1*(tanh(pvcp2*abs(v(n2,n1)/(lr*scale-dl))+pvcp3)-tanh(pvcp3)))'
r3 nn nx 'Rsh/mf*(lr*scale-dl)/(4.0*(wr*scale-dw))*tfacp*(1+pvcp1*(tanh(pvcp2*abs(v(n2,n1)/(lr*scale-dl))+pvcp3)-tanh(pvcp3)))'
r4 nx n1 'Rsh/mf*(lr*scale-dl)/(4.0*(wr*scale-dw))*tfacp*(1+pvcp1*(tanh(pvcp2*abs(v(n2,n1)/(lr*scale-dl))+pvcp3)-tanh(pvcp3)))'
rend2 n1 ne 'Rend0/mf/wr/scale*tface*(1+pvce1*(tanh(pvce2*abs(v(n1,ne))+pvce3)-tanh(pvce3)))'
d1 body n2 ndio area='mf*((wr*scale-dw)*(lr*scale-dl)/5.0)' pj='mf*((wr*scale-dw)+2.0*(lr*scale-dl)/5.0)'
d2 body nm ndio area='mf*((wr*scale-dw)*(lr*scale-dl)/5.0)' pj='mf*(2.0*(lr*scale-dl)/5.0)'
d3 body nn ndio area='mf*((wr*scale-dw)*(lr*scale-dl)/5.0)' pj='mf*(2.0*(lr*scale-dl)/5.0)'
d4 body nx ndio area='mf*((wr*scale-dw)*(lr*scale-dl)/5.0)' pj='mf*(2.0*(lr*scale-dl)/5.0)'
d5 body n1 ndio area='mf*((wr*scale-dw)*(lr*scale-dl)/5.0)' pj='mf*((wr*scale-dw)+2.0*(lr*scale-dl)/5.0)'
 
.ends rnodwo_m

***********************************     P+diff w/i silicide resistor     ***********************************
.subckt rpodl_m n2 n1 body lr=l wr=w mf=1 scale=1 mismatchflag=0
.param geo_fac ='1/sqrt(mf*lr*scale*wr*scale*1e12)'
.param factmis='0.01198*geo_fac*par_disres*mismatchflag'
.param rsh='rpl*(1+factmis)'

.param dw=0.0066u pvc1 = 4.53E-07   pvc2 = 2.22E-12   ptc1 = 2.63E-03   ptc2 = -9.56E-07 pt='temper'
.param tfac='1.0+ptc1*(pt-25.0)+ptc2*(pt-25.0)*(pt-25)'

r1 n2 nm 'rsh/mf*lr*scale/(4.0*(wr*scale-dw))*(1+pvc1*abs((v(n2,n1)/lr/scale))+pvc2*(v(n2,n1)/lr/scale)*(v(n2,n1)/lr/scale))*tfac'
r2 nm nn 'rsh/mf*lr*scale/(4.0*(wr*scale-dw))*(1+pvc1*abs((v(n2,n1)/lr/scale))+pvc2*(v(n2,n1)/lr/scale)*(v(n2,n1)/lr/scale))*tfac'
r3 nn nx 'rsh/mf*lr*scale/(4.0*(wr*scale-dw))*(1+pvc1*abs((v(n2,n1)/lr/scale))+pvc2*(v(n2,n1)/lr/scale)*(v(n2,n1)/lr/scale))*tfac'
r4 nx n1 'rsh/mf*lr*scale/(4.0*(wr*scale-dw))*(1+pvc1*abs((v(n2,n1)/lr/scale))+pvc2*(v(n2,n1)/lr/scale)*(v(n2,n1)/lr/scale))*tfac'
d1 n2 body pdio area='mf*((wr*scale-dw)*lr*scale/5.0)' pj='mf*((wr*scale-dw)+2.0*lr*scale/5.0)'
d2 nm body pdio area='mf*((wr*scale-dw)*lr*scale/5.0)' pj='mf*2.0*lr*scale/5.0'
d3 nn body pdio area='mf*((wr*scale-dw)*lr*scale/5.0)' pj='mf*2.0*lr*scale/5.0'
d4 nx body pdio area='mf*((wr*scale-dw)*lr*scale/5.0)' pj='mf*2.0*lr*scale/5.0'
d5 n1 body pdio area='mf*((wr*scale-dw)*lr*scale/5.0)' pj='mf*((wr*scale-dw)+2.0*lr*scale/5.0)'
.ends rpodl_m


.subckt rpods_m n2 n1 body lr=l wr=w mf=1 scale=1 mismatchflag=0
.param geo_fac ='1/sqrt(mf*lr*scale*wr*scale*1e12)'
.param factmis='0.01198*geo_fac*par_disres*mismatchflag'
.param rsh='rps*(1+factmis)'

.param dw='0.0066u+dxw_rps' pvc1 = 6.04E-07   pvc2 = 7.82E-13   ptc1 = 3.25E-03   ptc2 = -4.18E-07 pt='temper'
.param tfac='1.0+ptc1*(pt-25.0)+ptc2*(pt-25.0)*(pt-25)'

r1 n2 nm 'rsh/mf*lr*scale/(4.0*(wr*scale-dw))*(1+pvc1*abs((v(n2,n1)/lr/scale))+pvc2*(v(n2,n1)/lr/scale)*(v(n2,n1)/lr/scale))*tfac'
r2 nm nn 'rsh/mf*lr*scale/(4.0*(wr*scale-dw))*(1+pvc1*abs((v(n2,n1)/lr/scale))+pvc2*(v(n2,n1)/lr/scale)*(v(n2,n1)/lr/scale))*tfac'
r3 nn nx 'rsh/mf*lr*scale/(4.0*(wr*scale-dw))*(1+pvc1*abs((v(n2,n1)/lr/scale))+pvc2*(v(n2,n1)/lr/scale)*(v(n2,n1)/lr/scale))*tfac'
r4 nx n1 'rsh/mf*lr*scale/(4.0*(wr*scale-dw))*(1+pvc1*abs((v(n2,n1)/lr/scale))+pvc2*(v(n2,n1)/lr/scale)*(v(n2,n1)/lr/scale))*tfac'
d1 n2 body pdio area='mf*((wr*scale-dw)*lr*scale/5.0)' pj='mf*((wr*scale-dw)+2.0*lr*scale/5.0)'
d2 nm body pdio area='mf*((wr*scale-dw)*lr*scale/5.0)' pj='mf*2.0*lr*scale/5.0'
d3 nn body pdio area='mf*((wr*scale-dw)*lr*scale/5.0)' pj='mf*2.0*lr*scale/5.0'
d4 nx body pdio area='mf*((wr*scale-dw)*lr*scale/5.0)' pj='mf*2.0*lr*scale/5.0'
d5 n1 body pdio area='mf*((wr*scale-dw)*lr*scale/5.0)' pj='mf*((wr*scale-dw)+2.0*lr*scale/5.0)'

.ends rpods_m

***********************************     P+diff w/o silicide resistor     ***********************************
.subckt rpodwo_m ns ne body lr=l wr=w mf=1 scale=1 mismatchflag=0
.param geo_fac ='1/sqrt(mf*lr*scale*wr*scale*1e12)'
.param factmis='0.01835*geo_fac*par_disres*mismatchflag'
.param Rsh='rpwo*(1+factmis)' Rend0='rend_rpwo*(1+factmis)'

.param dl='0.0+dxl_rpwo' 
.param dw='0.03071u+dxw_rpwo'
.param pt='temper'
.param pvce1=3.5e-002 pvce2=2.585e+002 pvce3=-9.92e-002 ptce1=-1e-003 ptce2=2e-006
.param pvcp1=-3.889e-001 pvcp2=-1.725e-006 pvcp3=-2.098 ptcp1=1.11e-003 ptcp2=4.137e-006
.param tface='1.0+ptce1*(pt-25.0)+ptce2*(pt-25.0)*(pt-25.0)'
.param tfacp='1.0+ptcp1*(pt-25.0)+ptcp2*(pt-25.0)*(pt-25.0)'
 
rend1 ns n2 'Rend0/mf/wr/scale*tface*(1+pvce1*(tanh(pvce2*abs(v(ns,n2))+pvce3)-tanh(pvce3)))' 
r1 n2 nm 'Rsh/mf*(lr*scale-dl)/(4.0*(wr*scale-dw))*tfacp*(1+pvcp1*(tanh(pvcp2*abs(v(n2,n1)/(lr*scale-dl))+pvcp3)-tanh(pvcp3)))'
r2 nm nn 'Rsh/mf*(lr*scale-dl)/(4.0*(wr*scale-dw))*tfacp*(1+pvcp1*(tanh(pvcp2*abs(v(n2,n1)/(lr*scale-dl))+pvcp3)-tanh(pvcp3)))'
r3 nn nx 'Rsh/mf*(lr*scale-dl)/(4.0*(wr*scale-dw))*tfacp*(1+pvcp1*(tanh(pvcp2*abs(v(n2,n1)/(lr*scale-dl))+pvcp3)-tanh(pvcp3)))'
r4 nx n1 'Rsh/mf*(lr*scale-dl)/(4.0*(wr*scale-dw))*tfacp*(1+pvcp1*(tanh(pvcp2*abs(v(n2,n1)/(lr*scale-dl))+pvcp3)-tanh(pvcp3)))'
rend2 n1 ne 'Rend0/mf/wr/scale*tface*(1+pvce1*(tanh(pvce2*abs(v(n1,ne))+pvce3)-tanh(pvce3)))'
d1 n2 body pdio area='mf*((wr*scale-dw)*(lr*scale-dl)/5.0)' pj='mf*((wr*scale-dw)+2.0*(lr*scale-dl)/5.0)'
d2 nm body pdio area='mf*((wr*scale-dw)*(lr*scale-dl)/5.0)' pj='mf*(2.0*(lr*scale-dl)/5.0)'
d3 nn body pdio area='mf*((wr*scale-dw)*(lr*scale-dl)/5.0)' pj='mf*(2.0*(lr*scale-dl)/5.0)'
d4 nx body pdio area='mf*((wr*scale-dw)*(lr*scale-dl)/5.0)' pj='mf*(2.0*(lr*scale-dl)/5.0)'
d5 n1 body pdio area='mf*((wr*scale-dw)*(lr*scale-dl)/5.0)' pj='mf*((wr*scale-dw)+2.0*(lr*scale-dl)/5.0)'
 
.ends rpodwo_m

***********************************     N-well under OD resistor     ***********************************
.subckt rnwod_m n2 n1 body lr=l wr=w mf=1 scale=1
.param rsh='rnw' dw=0.29u ptc1=2.83E-03 ptc2=1.04E-05 pvc1=1.24E-02 pvc2=-2.98E-04 pt='temper'
.param tfac='1.0+ptc1*(pt-25.0)+ptc2*(pt-25.0)*(pt-25.0)'

r1 n2 nm 'rsh/mf*lr*scale/(4.0*(wr*scale-dw))*(1+pvc1*abs(v(n2,n1))+pvc2*v(n2,n1)*v(n2,n1))*tfac'
r2 nm nn 'rsh/mf*lr*scale/(4.0*(wr*scale-dw))*(1+pvc1*abs(v(n2,n1))+pvc2*v(n2,n1)*v(n2,n1))*tfac'
r3 nn nx 'rsh/mf*lr*scale/(4.0*(wr*scale-dw))*(1+pvc1*abs(v(n2,n1))+pvc2*v(n2,n1)*v(n2,n1))*tfac'
r4 nx n1 'rsh/mf*lr*scale/(4.0*(wr*scale-dw))*(1+pvc1*abs(v(n2,n1))+pvc2*v(n2,n1)*v(n2,n1))*tfac'
d1 body n2 nwdio area='mf*((wr*scale-dw)*lr*scale/5.0)' pj='mf*((wr*scale-dw)+2.0*lr*scale/5.0)'
d2 body nm nwdio area='mf*((wr*scale-dw)*lr*scale/5.0)' pj='mf*2.0*lr*scale/5.0'
d3 body nn nwdio area='mf*((wr*scale-dw)*lr*scale/5.0)' pj='mf*2.0*lr*scale/5.0'
d4 body nx nwdio area='mf*((wr*scale-dw)*lr*scale/5.0)' pj='mf*2.0*lr*scale/5.0'
d5 body n1 nwdio area='mf*((wr*scale-dw)*lr*scale/5.0)' pj='mf*((wr*scale-dw)+2.0*lr*scale/5.0)'

.ends rnwod_m

***********************************     N-well under STI resistor     ***********************************
.subckt rnwsti_m n2 n1 body lr=l wr=w mf=1 scale=1
.param rsh='rnwsti' dw=0.41u ptc1=1.73E-03 ptc2=9.66E-06 pvc1=1.16E-02 pvc2=-4.57E-04 pt='temper'
.param tfac='1.0+ptc1*(pt-25.0)+ptc2*(pt-25.0)*(pt-25.0)'

r1 n2 nm 'rsh/mf*lr*scale/(4.0*(wr*scale-dw))*(1+pvc1*abs(v(n2,n1))+pvc2*v(n2,n1)*v(n2,n1))*tfac'
r2 nm nn 'rsh/mf*lr*scale/(4.0*(wr*scale-dw))*(1+pvc1*abs(v(n2,n1))+pvc2*v(n2,n1)*v(n2,n1))*tfac'
r3 nn nx 'rsh/mf*lr*scale/(4.0*(wr*scale-dw))*(1+pvc1*abs(v(n2,n1))+pvc2*v(n2,n1)*v(n2,n1))*tfac'
r4 nx n1 'rsh/mf*lr*scale/(4.0*(wr*scale-dw))*(1+pvc1*abs(v(n2,n1))+pvc2*v(n2,n1)*v(n2,n1))*tfac'
d1 body n2 nwdio area='mf*((wr*scale-dw)*lr*scale/5.0)' pj='mf*((wr*scale-dw)+2.0*lr*scale/5.0)'
d2 body nm nwdio area='mf*((wr*scale-dw)*lr*scale/5.0)' pj='mf*2.0*lr*scale/5.0'
d3 body nn nwdio area='mf*((wr*scale-dw)*lr*scale/5.0)' pj='mf*2.0*lr*scale/5.0'
d4 body nx nwdio area='mf*((wr*scale-dw)*lr*scale/5.0)' pj='mf*2.0*lr*scale/5.0'
d5 body n1 nwdio area='mf*((wr*scale-dw)*lr*scale/5.0)' pj='mf*((wr*scale-dw)+2.0*lr*scale/5.0)'
.ends rnwsti_m

.ENDL DIS_RES

***********************************************************************
*             	              RTMOM                                   *
***********************************************************************
************* Library of typical corner *******************************

.LIB TT_RTMOM
.param RTMOM_fac= 1 	
+ par_mom=AGAUSS(0,1,1)
.lib 'TSMC_90nm.l' RTMOM
.ENDL TT_RTMOM

************* Library of slow corner **********************************

.LIB SS_RTMOM
.param RTMOM_fac= 1.25	
+ par_mom=AGAUSS(0,1,1)
.lib 'TSMC_90nm.l' RTMOM
.ENDL SS_RTMOM

************* Library of fast corner **********************************

.LIB FF_RTMOM
.param RTMOM_fac= 0.75 	
+ par_mom=AGAUSS(0,1,1)
.lib 'TSMC_90nm.l' RTMOM
.ENDL FF_RTMOM

************************************************************************

.LIB RTMOM

******************************************************************************************
*                                                                                        *
*           N90 MM RTMOM                                                                 *
*                                                                                        *
*           parameter range: nv : 6~288, nh : 6~288                                      *
*                            nv and nh should be even fingers                            *
*                            w(width):0.14u ~0.18u                                       *
*                            s(spacing):0.14u ~0.18u                                     *
*                            stm(start metal layer):M1,M2,M3,M4,M5                       *
*                            spm(stop metal layer):M3,M4,M5,M6,M7                        *
*                            Total metal is at least 3 layers stacked with ploy shield   *
*                                                                                        *
*                                                                                        *
******************************************************************************************
.subckt crtmom a b p nv=32 nh=32 w=0.14u s=0.14u stm=1 spm=7 mismatchflag=0
.param 
+ layno='spm-stm+1'
+ laym1='INT(layno/spm)'
+ layodd='INT((layno+(stm-2)*(stm-3)*(stm-4)*(stm-5)/(24)+(stm-1)*(stm-2)*(stm-4)*(stm-5)/(4)+(stm-1)*(stm-2)*(stm-3)*(stm-4)/24)/2)-laym1'
+ layeven='INT((layno+(stm-1)*(stm-3)*(stm-4)*(stm-5)/(-6)+(stm-1)*(stm-2)*(stm-3)*(stm-5)/(-6))/2)'
*
+ Edg='((layodd+2400/3100*laym1)*(nv-1)*(nh*(w+s)-s)+layeven*(nh-1)*(nv*(w+s)-s))'
+ AREA='nv*nh/2*w*(layno-1)'
+ FRI1='(2*nh*nv*w)*(layno-1)'
+ FRI2='((layodd+laym1)*nv*w+layeven*nh*w)+layeven*(nv*(w+s)-s+0.5u)*2+layno*0.14u*2+(layodd+2400/3100*laym1)*(nh*(w+s)-s)*2'
+ Abm ='((nv*(w+s)-s+(0.14u+0.5u)*2)+(nh*(w+s)-s+0.5u))*0.14u'
+ Afm ='(nv*w*(nh*(w+s)-s+0.5u))/2'
+ Pf ='(nh*(w+s)-s+0.5u)*(nv)*2/2+2*((nv*(w+s)-s+(0.5u+0.14u)*2)+(nh*(w+s)-s+0.5u+0.14u))'
+ Pfb ='((nh*(w+s)-s)+0.5u+0.14u)*3.6'
*
+ Cc1 ='0.011524402/(s*1e6)-0.000037017/(w*1e6)+0.000045818/(s*1e6)/(w*1e6)+0.011009657'
+ Cc2 ='0.0286'
+ Cf ='0.036117184*(s*1e6)+0.004602544*(w*1e6)-0.002872500*(s*1e6)*(w*1e6)+0.001645038'
+ Ca ='0.017557301*(s*1e6)+0.093553541*(w*1e6)-0.072277500*(s*1e6)*(w*1e6)-0.000162961'
*
+ ca_p_a='((stm-2)*(stm-3)*(stm-4)*(stm-5)/(1-2)/(1-3)/(1-4)/(1-5)*(0.189546286)+(stm-1)*(stm-3)*(stm-4)*(stm-5)/(2-1)/(2-3)/(2-4)/(2-5)*(0.011894433)+(stm-1)*(stm-2)*(stm-4)*(stm-5)/(3-1)/(3-2)/(3-4)/(3-5)*(0.005353880)+(stm-1)*(stm-2)*(stm-3)*(stm-5)/(4-1)/(4-2)/(4-3)/(4-5)*(0.003524584)+(stm-1)*(stm-2)*(stm-3)*(stm-4)/(5-1)/(5-2)/(5-3)/(5-4)*(0.002451026))'
+ ca_p_b='((stm-2)*(stm-3)*(stm-4)*(stm-5)/(1-2)/(1-3)/(1-4)/(1-5)*(0.255163430)+(stm-1)*(stm-3)*(stm-4)*(stm-5)/(2-1)/(2-3)/(2-4)/(2-5)*(0.043199953)+(stm-1)*(stm-2)*(stm-4)*(stm-5)/(3-1)/(3-2)/(3-4)/(3-5)*(0.021956120)+(stm-1)*(stm-2)*(stm-3)*(stm-5)/(4-1)/(4-2)/(4-3)/(4-5)*(0.014860744)+(stm-1)*(stm-2)*(stm-3)*(stm-4)/(5-1)/(5-2)/(5-3)/(5-4)*(0.011242146))'
+ ca_p_c='((stm-2)*(stm-3)*(stm-4)*(stm-5)/(1-2)/(1-3)/(1-4)/(1-5)*(-0.929842863)+(stm-1)*(stm-3)*(stm-4)*(stm-5)/(2-1)/(2-3)/(2-4)/(2-5)*(-0.057757500)+(stm-1)*(stm-2)*(stm-4)*(stm-5)/(3-1)/(3-2)/(3-4)/(3-5)*(-0.022050000)+(stm-1)*(stm-2)*(stm-3)*(stm-5)/(4-1)/(4-2)/(4-3)/(4-5)*(-0.014392500)+(stm-1)*(stm-2)*(stm-3)*(stm-4)/(5-1)/(5-2)/(5-3)/(5-4)*(-0.010345))'
+ ca_p_d='((stm-2)*(stm-3)*(stm-4)*(stm-5)/(1-2)/(1-3)/(1-4)/(1-5)*(-0.018555589)+(stm-1)*(stm-3)*(stm-4)*(stm-5)/(2-1)/(2-3)/(2-4)/(2-5)*(-0.000615446)+(stm-1)*(stm-2)*(stm-4)*(stm-5)/(3-1)/(3-2)/(3-4)/(3-5)*(-0.000230116)+(stm-1)*(stm-2)*(stm-3)*(stm-5)/(4-1)/(4-2)/(4-3)/(4-5)*(-0.000142174)+(stm-1)*(stm-2)*(stm-3)*(stm-4)/(5-1)/(5-2)/(5-3)/(5-4)*(-0.000084373))'
*
+ cf_p_a='((stm-2)*(stm-3)*(stm-4)*(stm-5)/(1-2)/(1-3)/(1-4)/(1-5)*(-0.044399405)+(stm-1)*(stm-3)*(stm-4)*(stm-5)/(2-1)/(2-3)/(2-4)/(2-5)*(0.013294653)+(stm-1)*(stm-2)*(stm-4)*(stm-5)/(3-1)/(3-2)/(3-4)/(3-5)*(0.007531071)+(stm-1)*(stm-2)*(stm-3)*(stm-5)/(4-1)/(4-2)/(4-3)/(4-5)*(0.007494000)+(stm-1)*(stm-2)*(stm-3)*(stm-4)/(5-1)/(5-2)/(5-3)/(5-4)*(0.00711393))'
+ cf_p_b='((stm-2)*(stm-3)*(stm-4)*(stm-5)/(1-2)/(1-3)/(1-4)/(1-5)*(-0.071058908)+(stm-1)*(stm-3)*(stm-4)*(stm-5)/(2-1)/(2-3)/(2-4)/(2-5)*(-0.003297267)+(stm-1)*(stm-2)*(stm-4)*(stm-5)/(3-1)/(3-2)/(3-4)/(3-5)*(-0.002028929)+(stm-1)*(stm-2)*(stm-3)*(stm-5)/(4-1)/(4-2)/(4-3)/(4-5)*(0.000746000)+(stm-1)*(stm-2)*(stm-3)*(stm-4)/(5-1)/(5-2)/(5-3)/(5-4)*(0.00160777))'
+ cf_p_c='((stm-2)*(stm-3)*(stm-4)*(stm-5)/(1-2)/(1-3)/(1-4)/(1-5)*(0.585046855)+(stm-1)*(stm-3)*(stm-4)*(stm-5)/(2-1)/(2-3)/(2-4)/(2-5)*(0.028317500)+(stm-1)*(stm-2)*(stm-4)*(stm-5)/(3-1)/(3-2)/(3-4)/(3-5)*(0.014125000)+(stm-1)*(stm-2)*(stm-3)*(stm-5)/(4-1)/(4-2)/(4-3)/(4-5)*(0.000000000)+(stm-1)*(stm-2)*(stm-3)*(stm-4)/(5-1)/(5-2)/(5-3)/(5-4)*(-0.0043775))'
+ cf_p_d='((stm-2)*(stm-3)*(stm-4)*(stm-5)/(1-2)/(1-3)/(1-4)/(1-5)*(0.014708665)+(stm-1)*(stm-3)*(stm-4)*(stm-5)/(2-1)/(2-3)/(2-4)/(2-5)*(0.002616040)+(stm-1)*(stm-2)*(stm-4)*(stm-5)/(3-1)/(3-2)/(3-4)/(3-5)*(0.002594564)+(stm-1)*(stm-2)*(stm-3)*(stm-5)/(4-1)/(4-2)/(4-3)/(4-5)*(0.002074600)+(stm-1)*(stm-2)*(stm-3)*(stm-4)/(5-1)/(5-2)/(5-3)/(5-4)*(0.001896725))'
*
+ Ca_p ='(ca_p_a*(s*1e6)+ca_p_b*(w*1e6)+ca_p_c*(s*1e6)*(w*1e6)+ca_p_d)'
+ Cf_p ='cf_p_a*(s*1e6)+cf_p_b*(w*1e6)+cf_p_c*(s*1e6)*(w*1e6)+cf_p_d'
+ Cc_p ='0.0254'
*
+ geo_fac ='1/sqrt(((Cc1*Edg*1e-9+Cf*1e-9*FRI1+Ca*1e-9*AREA+Cc2*1e-9*FRI2)+(Ca_p*(Abm+Afm)/(w*1e6)*1e-3+Cf_p*Pf*1e-9+Cc_p*Pfb*1e-9))*1e15)'
+ factmis='0.01519*geo_fac*par_mom*mismatchflag'
*
Cab a b '(1+factmis)*(Cc1*Edg*1e-9+Cf*1e-9*FRI1+Ca*1e-9*AREA+Cc2*1e-9*FRI2)*(1+(temper-25)*(-12.5*1e-6)+(temper-25)*(temper-25)*(1.25e-8))*(1+0.125*1e-6*v(a,b)-1.125*1e-6*v(a,b)*v(a,b))*RTMOM_fac'
Cpa a p '(1+factmis)*(Ca_p*(Abm+Afm)/(w*1e6)*1e-3+Cf_p*Pf*1e-9+Cc_p*Pfb*1e-9)*(1+(temper-25)*(-12.5*1e-6)+(temper-25)*(temper-25)*(1.25e-8))*(1+0.125*1e-6*v(a,p)-1.125*1e-6*v(a,p)*v(a,p))*RTMOM_fac'
Cpb b p '(1+factmis)*(Ca_p*(Abm+Afm)/(w*1e6)*1e-3+Cf_p*Pf*1e-9+Cc_p*Pfb*1e-9)*(1+(temper-25)*(-12.5*1e-6)+(temper-25)*(temper-25)*(1.25e-8))*(1+0.125*1e-6*v(b,p)-1.125*1e-6*v(b,p)*v(b,p))*RTMOM_fac'

.ends crtmom

.ENDL RTMOM
