 ****** HSPICE -- A-2008.03 32-BIT (Feb 26 2008) winnt ******                   
  Copyright (C) 2008 Synopsys, Inc. All Rights Reserved.                        
  Unpublished-rights reserved under US copyright laws.
  This program is protected by law and is subject to the 
  terms and conditions of the license agreement found in:
    D:\synopsys\Hspice_A-2008.03\license.warn
  Use of this program is your acceptance to be bound by this 
  license agreement. HSPICE is the trademark of Synopsys, Inc.
  Input File: e:\term6\elec3\electronic3_project\unreal.sp                      
 Init: read install configuration file: D:\synopsys\Hspice_A-2008.03\meta.cfg
 Init: hspice initialization file: D:\synopsys\Hspice_A-2008.03\hspice.ini





 * calling the technology file
 .lib './tsmc_90nm.l' tt

 .lib 'tsmc_90nm.l' cco_pre_simu

 .param ccoflag=0
 .endl cco_pre_simu
 .param
 +parn1=agauss(0,1,1)
 +parn2=agauss(0,1,1)
 +parp1=agauss(0,1,1)
 +parp2=agauss(0,1,1)
 +toxn           = 2.33e-09      cjn            = 9.8000e-04    cjswn          = 4.0000e-11    
 +cjswgn         = 3.7000e-10    cgon           = 1.209e-10     cgln           = 6.5143e-11    
 +dvthn          = 0             dpvthn         = 0             dxln           = 0             
 +dxwn           = -0.5e-8       dlvthn         = 0             dwvthn         = 0             
 +dk2n           = 0             dpvoffn        = 0
 +dpvsatn        = 0             dpeta0n        = 0
 +dxlp           = 0             dxwp           = -0.5e-8
 +toxp           = 2.50e-09      cjp            = 1.1400e-03    cjswp          = 6.0000e-11    
 +cjswgp         = 3.6000e-10    cgop           = 2.568e-11     cglp           = 1.8957e-10    
 +dvthp          = 0             dlvthp         = 0             dwvthp         = 0             
 +dpvthp         = 0                 
 +dlcdscdp       = 0             drdswp         = 0             ntoxn          = 1
 +ntoxp          = 1             dlvoffp        = 0             dk2p           = 0
 +cfn            = '1.38e-10+3.1e-11*ccoflag'
 +cfp            = '1.38e-10+3.1e-11*ccoflag'
 .lib 'tsmc_90nm.l' mos

 *
 *******************************************************************************************
 *                                                                                         *
 *                        1.0v svt nmos device macro models                                *
 *                                                                                         *
 *******************************************************************************************

 .subckt nch_mac n1 n2 n3 n4 l=length w=width multi='1' nf='1' scale='1' 
 +dmcg='9.25e-8' xw='1.5e-8+dxwn' 
 +ad='2*dmcg/scale*(w/nf+xw/scale)' as='2*dmcg/scale*(w/nf+xw/scale)'
 +pd='4*dmcg/scale+2*(w/nf+xw/scale)' ps='4*dmcg/scale+2*(w/nf+xw/scale)'
 +nrd='dmcg/scale/(w/nf+xw/scale)' nrs='dmcg/scale/(w/nf+xw/scale)'
 +sa='0.63e-6/scale' sb='0.63e-6/scale' sd='2*dmcg/scale' sc='20.0e-6/scale'
 +wpeflag='1' rgflag='0'  mismatchflag='0'

 main n1 n22 n3 n4 nch w=w l=l ad=ad as=as pd=pd ps=ps nrd=nrd nrs=nrs m=multi nf=nf sa=sa sb=sb sd=sd

 *** mismatch ***
 .param
 +temp1=parn1  temp2=parn2
 +fac1='0.756823*temp1+0.653620*temp2'
 +fac2='0.756823*temp1-0.653620*temp2'
 .param  lef='l-3.5e-08'
 +       wef='w+1.5e-8'
 +       geo_fac ='1/sqrt(multi*lef*wef*1e12)'
 +       vthmisn='2.402e-03*geo_fac*fac1*mismatchflag'
 +       dlmisn='1.834e-03*geo_fac*lef*fac2*mismatchflag'
 +       dwmisn='-1.834e-03*geo_fac*wef*fac2*mismatchflag'
 +       toxmisn='1.834e-03*geo_fac*toxn*fac2*mismatchflag'

 *** wpe *** 
 .param sc0='0.23e-6'
 .param scref='20e-6'
 .param kvth0we='3.5e-15' lkvth0we='0' wkvth0we='0' pkvth0we='0'
 .param wek2='1.6e-15' lwek2='0' wwek2='0' pwek2='0'
 .param ku0we='-3.0e-15' lku0we='5.0e-22' wku0we='0' pku0we='0'

 .param xl='-3.5e-08+dxln' lint='2.5e-9' leff='l*scale+xl-2*lint'
 .param wint='6e-9' weff='w/nf*scale+xw-2*wint'
 .param inv_sc='(1/(sc*scale*sc*scale+sc0*sc0)-1/(scref*scref+sc0*sc0))'
 .param dvth0_wpe='inv_sc*(kvth0we+lkvth0we/leff+wkvth0we/weff+pkvth0we/leff/weff)*wpeflag'
 .param dk2_wpe='inv_sc*(wek2+lwek2/leff+wwek2/weff+pwek2/leff/weff)*wpeflag'
 .param ku0we_eff='ku0we+lku0we/leff+wku0we/weff+pku0we/leff/weff'
 .param ku0_wpe='(1+ku0we_eff/(sc*scale*sc*scale+sc0*sc0)*wpeflag)/(1+ku0we_eff/(scref*scref+sc0*sc0)*wpeflag)'

 *** rg *** 
 .lib 'tsmc_90nm.l' tt_res_rg

 .param
 +r_rnpolys_rg    = 10.41           dxw_rnpolys_rg  = 0
 +r_rppolys_rg    = 10.77           dxw_rppolys_rg  = 0
 .lib 'tsmc_90nm.l' res_rg

 ***********************************     n+poly silicide resistor (w<2um)     ***********************************
 .subckt rnpolyrg n1 n2 ll=length ww=width m=1 scale=1
 .param rsh = r_rnpolys_rg
 .param dw = '0.0189u + dxw_rnpolys_rg'  
 .param pvc1 = 1.51e-06   pvc2 = 1.13e-12   ptc1 = 3.12e-03   ptc2 = -1.91e-06   
 .param pt='temper'
 .param tfac='1.0+ptc1*(pt-25.0)+ptc2*(pt-25.0)*(pt-25.0)'
 r1 n1 n2 'rsh/m*ll*scale/(ww*scale-dw)*tfac'
 .ends rnpolyrg
 ***********************************     p+poly silicide resistor (w<2um)     ***********************************
 .subckt rppolyrg n1 n2 ll=length ww=width m=1 scale=1 
 .param rsh = r_rppolys_rg
 .param dw = '0.0077u + dxw_rppolys_rg'  
 .param pvc1 = 1.82e-06   pvc2 = 1.23e-12   ptc1 = 3.08e-03   ptc2 = -1.39e-06   
 .param pt='temper'
 .param tfac='1.0+ptc1*(pt-25.0)+ptc2*(pt-25.0)*(pt-25.0)'
 r1 n1 n2 'rsh/m*ll*scale/(ww*scale-dw)*tfac'
 .ends rppolyrg

 .endl res_rg
 .endl tt_res_rg
 xrg n2 n22 rnpolyrg ll='(w/3/nf/nf)*rgflag+1e-8' ww='l+dxln ' m=multi scale='1'

 *** thermal noise ***
 .param noix ='0.7999-6.2145*(l*1e6-0.24-abs(l*1e6-0.24))'

 .model nch.1 nmos	(	lmin     = '1.0000e-05-(dxln+dlmisn)'         lmax     = 2.001e-05              
 +wmin     = '1.0000e-05-(dxwn+dwmisn)'         wmax     = 9.001e-04                level    = 54                     
 +version  = 4.4                 binunit  = 2                   paramchk = 1                   
 +mobmod   = 0                   capmod   = 2                   igcmod   = 1                   
 +igbmod   = 1                   diomod   = 1                   rdsmod   = 0                   
 +rbodymod = 0                   rgatemod = 0                   permod   = 1                   
 +acnqsmod = 0                   trnqsmod = 0                   tnom     = 25                  
 +toxe     = '(toxn+toxmisn)'              toxm     = '(toxn+toxmisn)'              dtox     = 3e-010           
 +epsrox   = 3.9                 wint     = 6e-009              lint     = 2.5e-009            
 +ll       = 0                   wl       = 0                   lln      = 1                   
 +wln      = 1                   lw       = 0                   ww       = 0                   
 +lwn      = 1                   wwn      = 1                   lwl      = 0                   
 +wwl      = 0                   llc      = 0                   wlc      = 0                   
 +lwc      = 0                   wwc      = 0                   lwlc     = 0                   
 +wwlc     = 0                   dlc      = 1.172e-008           dwc      = 0                   
 +xpart    = 1                   toxref   = 3e-009              dlcig    = 2.5e-009            
 +xl       = '-3.5e-08+(dxln+dlmisn)'     xw       = '1.5e-8+(dxwn+dwmisn)'   
 +vth0     = '0.228+(dvthn+vthmisn)+dvth0_wpe'
 +wvth0    = '0+dwvthn'          lvth0    = '0+dlvthn'          pvth0    = '0+dpvthn'          
 +k1       = 0.3231             
 +k2       = '0.008228+dk2n+dk2_wpe' 
 +k3       = -2.7                
 +k3b      = 1.2                 w0       = -5e-008             dvt0     = 13.9                
 +dvt1     = 1.25                dvt2     = 0                   dvt0w    = 0                   
 +dvt1w    = 0                   dvt2w    = 0                   dsub     = 0.5                 
 +minv     = 0                   voffl    = 0                   dvtp0    = 4e-007              
 +dvtp1    = 2                   lpe0     = 4.45e-008           lpeb     = 0                   
 +xj       = 1.5e-007            ngate    = 4e020               ndep     = 8.3687e017          
 +nsd      = 1e020               phin     = 0                   cdsc     = 0                   
 +cdscb    = 0                   cdscd    = 0                   cit      = 0                   
 +voff     = -0.1059             nfactor  = 0.5                 eta0     = 0.22                
 +peta0    = '0+dpeta0n' 
 +pvoff    = '0+dpvoffn' 
 +etab     = -0.1               
 +u0       = '(0.03918)*ku0_wpe' 
 +pu0      = '(0)*ku0_wpe' 
 +lu0      = '(0)*ku0_wpe' 
 +wu0      = '(0)*ku0_wpe' 
 +ua       = -6.284e-010         
 +ub       = 2.158e-018          uc       = 2.277e-010          vsat     = 114000              
 +pvsat    = '0+dpvsatn' 
 +a0       = 2.375               ags      = 0.95                a1       = 0                   
 +a2       = 1                   b0       = 0                   b1       = 0                   
 +keta     = -0.045              dwg      = 0                   dwb      = 0                   
 +pclm     = 0.84                pdiblc1  = 0                   pdiblc2  = 0.0001              
 +pdiblcb  = 0                   drout    = 0                   pvag     = 1.5                 
 +delta    = 0.0075              pscbe1   = 9.264e008           pscbe2   = 1e-020              
 +fprout   = 200                 pdits    = 0                   pditsd   = 0                   
 +pditsl   = 0                   rsh      = 10.5                rdsw     = 140                 
 +prwg     = 0                   prwb     = 0                   wr       = 1                   
 +alpha0   = 0                   alpha1   = 0.03                beta0    = 8.7                 
 +agidl    = 9e-008              bgidl    = 2.3e009             cgidl    = 0.5                 
 +egidl    = 0.53                aigbacc  = 0.01134             bigbacc  = 0.003249            
 +cigbacc  = 0.1416              nigbacc  = 4.05                aigbinv  = 0.35                
 +bigbinv  = 0.03                cigbinv  = 0.006               eigbinv  = 1.1                 
 +nigbinv  = 1                   aigc     = 0.0103              bigc     = 0.001525            
 +cigc     = 0                   aigsd    = 0.00845             bigsd    = 0.0004021           
 +cigsd    = 0.001463            nigc     = 1                   poxedge  = 1                   
 +pigcd    = 2.3                 ntox     = 'ntoxn'             xrcrg1   = 12                
 +xrcrg2   = 1                   cgso     = 'cgon'              cgdo     = 'cgon'              
 +cgbo     = 0                   cgdl     = 'cgln'              cgsl     = 'cgln'              
 +clc      = 1e-007              cle      = 0.6                 cf       = 'cfn'                      
 +ckappas  = 0.6                 acde     = 1.2                 moin     = 12.6                
 +noff     = 1.686               voffcv   = -0.05472            kt1      = -0.2081             
 +kt1l     = 0                   kt2      = -0.04464            ute      = -1.73               
 +ua1      = 2.684e-009          ub1      = -3.673e-018         uc1      = -6.421e-011         
 +prt      = 0                   at       = 45000               jss      = 1.77e-07            
 +jsws     = 4.23e-13            jswgs    = 9e-12               njs      = 1                   
 +ijthsfwd = 0.01                ijthsrev = 0.01                bvs      = 10                  
 +xjbvs    = 1                   pbs      = 0.5                 cjs      = 'cjn'               
 +mjs      = 0.25                pbsws    = 0.8                 cjsws    = 'cjswn'             
 +mjsws    = 0.01                pbswgs   = 0.78                cjswgs   = 'cjswgn'            
 +mjswgs   = 0.52                tpb      = 1.00e-03            tcj      = 7.32e-04            
 +tpbsw    = 1.90e-03            tcjsw    = 3.57e-04            tpbswg   = 1.90e-03            
 +tcjswg   = 3.57e-04            xtis     = 3                   dmcg     = 9.25e-008           
 +dmci     = 9.25e-008           dmdg     = 0                   dmcgt    = 0                   
 +dwj      = 0                   xgw      = 0                   xgl      = 0                   
 +rshg     = 0.1                 gbmin    = 1e-012              rbpb     = 50                  
 +rbpd     = 50                  rbps     = 50                  rbdb     = 50                  
 +rbsb     = 50                  ngcon    = 1                   
 +saref    = 0.63e-6             sbref    = 0.63e-6
 +kvsat    = 0.20                 wlod     = 0.8e-6             tku0     = 0.01
 +ku0      = -7.36e-8            llodku0  = 1                   wlodku0  = 1
 +lku0     = 4.027e-7            wku0     = 8e-7                pku0     = -2.0e-13
 +kvth0    = 3.5e-9              stk2     = 1.35e-9             steta0   = 0
 +lkvth0   = -2.68e-11           wkvth0   = 1.5e-6              pkvth0   = 0
 +llodvth  = 1                   wlodvth  = 1                   lodk2    = 0.5
 +lodeta0  = 1                    
 +fnoimod  = 1                   noia     = 4.2926e+41          noib     = 1.612e+24
 +noic     = 8.75                em       = 1.192e+07           ef       = 0.8841
 +tnoimod  = 0			ntnoi    = noix       )

 .model nch.2 nmos	(	lmin     = '5.0000e-07-(dxln+dlmisn)'         lmax     = '1.0000e-05-(dxln+dlmisn)'      
 +wmin     = '1.0000e-05-(dxwn+dwmisn)'         wmax     = 9.001e-04                level    = 54                     
 +version  = 4.4                 binunit  = 2                   paramchk = 1                   
 +mobmod   = 0                   capmod   = 2                   igcmod   = 1                   
 +igbmod   = 1                   diomod   = 1                   rdsmod   = 0                   
 +rbodymod = 0                   rgatemod = 0                   permod   = 1                   
 +acnqsmod = 0                   trnqsmod = 0                   tnom     = 25                  
 +toxe     = '(toxn+toxmisn)'              toxm     = '(toxn+toxmisn)'              dtox     = 3e-010           
 +epsrox   = 3.9                 wint     = 6e-009              lint     = 2.5e-009            
 +ll       = 0                   wl       = 0                   lln      = 1                   
 +wln      = 1                   lw       = 0                   ww       = 0                   
 +lwn      = 1                   wwn      = 1                   lwl      = 0                   
 +wwl      = 0                   llc      = 0                   wlc      = 0                   
 +lwc      = 0                   wwc      = 0                   lwlc     = 0                   
 +wwlc     = 0                   dlc      = 1.172e-008           dwc      = 0                   
 +xpart    = 1                   toxref   = 3e-009              dlcig    = 2.5e-009            
 +xl       = '-3.5e-08+(dxln+dlmisn)'     xw       = '1.5e-8+(dxwn+dwmisn)'   
 +vth0     = '0.228+(dvthn+vthmisn)+dvth0_wpe'
 +wvth0    = '0+dwvthn'          lvth0    = '0+dlvthn'          pvth0    = '0+dpvthn'          
 +k1       = 0.3231             
 +k2       = '0.0085779874+dk2n+dk2_wpe' 
 +lk2      = -3.4858742e-009     
 +wk2      = 4.2482823e-025      pk2      = -4.2312892e-030     k3       = -2.7                
 +k3b      = 1.2                 w0       = -5e-008             dvt0     = 13.9                
 +dvt1     = 1.25                dvt2     = 0                   dvt0w    = 0                   
 +dvt1w    = 0                   dvt2w    = 0                   dsub     = 0.5                 
 +minv     = 0                   voffl    = 0                   dvtp0    = 4e-007              
 +dvtp1    = 2                   lpe0     = 4.45e-008           lpeb     = 0                   
 +xj       = 1.5e-007            ngate    = 4e020               ndep     = 8.3687e017          
 +nsd      = 1e020               phin     = 0                   cdsc     = 0                   
 +cdscb    = 0                   cdscd    = 0                   cit      = 0                   
 +voff     = -0.1059             nfactor  = 0.5                 eta0     = 0.22                
 +peta0    = '0+dpeta0n' 
 +pvoff    = '0+dpvoffn' 
 +etab     = -0.1               
 +u0       = '(0.03918)*ku0_wpe' 
 +pu0      = '(0)*ku0_wpe' 
 +lu0      = '(0)*ku0_wpe' 
 +wu0      = '(0)*ku0_wpe' 
 +ua       = -6.284e-010         
 +ub       = 2.1711705e-018      lub      = -1.3117844e-025     wub      = 2.3582704e-041      
 +pub      = -2.3488373e-046     uc       = 2.2999032e-010      luc      = -2.2811545e-017     
 +wuc      = 3.165217e-033       puc      = -3.1525561e-038     vsat     = 114000              
 +pvsat    = '0+dpvsatn' 
 +a0       = 2.375               ags      = 0.93789474          lags     = 1.2056842e-007      
 +wags     = -1.3594503e-023     pags     = 1.3540125e-028      a1       = 0                   
 +a2       = 1                   b0       = 0                   b1       = 0                   
 +keta     = -0.045              dwg      = 0                   dwb      = 0                   
 +pclm     = 0.84                pdiblc1  = 0                   pdiblc2  = 0.0001              
 +pdiblcb  = 0                   drout    = 0                   pvag     = 1.5                 
 +delta    = 0.0075              pscbe1   = 9.264e008           pscbe2   = 1e-020              
 +fprout   = 200                 pdits    = 0                   pditsd   = 0                   
 +pditsl   = 0                   rsh      = 10.5                rdsw     = 140                 
 +prwg     = 0                   prwb     = 0                   wr       = 1                   
 +alpha0   = 0                   alpha1   = 0.03                beta0    = 8.7                 
 +agidl    = 9e-008              bgidl    = 2.3e009             cgidl    = 0.5                 
 +egidl    = 0.53                aigbacc  = 0.01134             bigbacc  = 0.003249            
 +cigbacc  = 0.1416              nigbacc  = 4.05                aigbinv  = 0.35                
 +bigbinv  = 0.03                cigbinv  = 0.006               eigbinv  = 1.1                 
 +nigbinv  = 1                   aigc     = 0.0103              bigc     = 0.001525            
 +cigc     = 0                   aigsd    = 0.00845             bigsd    = 0.0004021           
 +cigsd    = 0.001463            nigc     = 1                   poxedge  = 1                   
 +pigcd    = 2.3                 ntox     = 'ntoxn'             xrcrg1   = 12                
 +xrcrg2   = 1                   cgso     = 'cgon'              cgdo     = 'cgon'              
 +cgbo     = 0                   cgdl     = 'cgln'              cgsl     = 'cgln'              
 +clc      = 1e-007              cle      = 0.6                 cf       = 'cfn'                      
 +ckappas  = 0.6                 acde     = 1.2                 moin     = 12.6                
 +noff     = 1.686               voffcv   = -0.05472            kt1      = -0.20699116         
 +lkt1     = -1.1044067e-008     wkt1     = 1.6993129e-024      pkt1     = -1.6925157e-029     
 +kt1l     = 0                   kt2      = -0.04464            ute      = -1.7392             
 +lute     = 9.1632e-008         wute     = -1.3594503e-023     pute     = 1.3540125e-028      
 +ua1      = 2.684e-009          ub1      = -3.673e-018         uc1      = -6.421e-011         
 +prt      = 0                   at       = 45000               jss      = 1.77e-07            
 +jsws     = 4.23e-13            jswgs    = 9e-12               njs      = 1                   
 +ijthsfwd = 0.01                ijthsrev = 0.01                bvs      = 10                  
 +xjbvs    = 1                   pbs      = 0.5                 cjs      = 'cjn'               
 +mjs      = 0.25                pbsws    = 0.8                 cjsws    = 'cjswn'             
 +mjsws    = 0.01                pbswgs   = 0.78                cjswgs   = 'cjswgn'            
 +mjswgs   = 0.52                tpb      = 1.00e-03            tcj      = 7.32e-04            
 +tpbsw    = 1.90e-03            tcjsw    = 3.57e-04            tpbswg   = 1.90e-03            
 +tcjswg   = 3.57e-04            xtis     = 3                   dmcg     = 9.25e-008           
 +dmci     = 9.25e-008           dmdg     = 0                   dmcgt    = 0                   
 +dwj      = 0                   xgw      = 0                   xgl      = 0                   
 +rshg     = 0.1                 gbmin    = 1e-012              rbpb     = 50                  
 +rbpd     = 50                  rbps     = 50                  rbdb     = 50                  
 +rbsb     = 50                  ngcon    = 1                   
 +saref    = 0.63e-6             sbref    = 0.63e-6
 +kvsat    = 0.20                 wlod     = 0.8e-6             tku0     = 0.01
 +ku0      = -7.36e-8            llodku0  = 1                   wlodku0  = 1
 +lku0     = 4.027e-7            wku0     = 8e-7                pku0     = -2.0e-13
 +kvth0    = 3.5e-9              stk2     = 1.35e-9             steta0   = 0
 +lkvth0   = -2.68e-11           wkvth0   = 1.5e-6              pkvth0   = 0
 +llodvth  = 1                   wlodvth  = 1                   lodk2    = 0.5
 +lodeta0  = 1
 +fnoimod  = 1                   noia     = 4.2926e+41          noib     = 1.612e+24
 +noic     = 8.75                em       = 1.192e+07           ef       = 0.8841
 +tnoimod  = 0			ntnoi    = noix       )

 .model nch.3 nmos	(	lmin     = '2.4000e-07-(dxln+dlmisn)'         lmax     = '5.0000e-07-(dxln+dlmisn)'      
 +wmin     = '1.0000e-05-(dxwn+dwmisn)'         wmax     = 9.001e-04                level    = 54                     
 +version  = 4.4                 binunit  = 2                   paramchk = 1                   
 +mobmod   = 0                   capmod   = 2                   igcmod   = 1                   
 +igbmod   = 1                   diomod   = 1                   rdsmod   = 0                   
 +rbodymod = 0                   rgatemod = 0                   permod   = 1                   
 +acnqsmod = 0                   trnqsmod = 0                   tnom     = 25                  
 +toxe     = '(toxn+toxmisn)'              toxm     = '(toxn+toxmisn)'              dtox     = 3e-010           
 +epsrox   = 3.9                 wint     = 6e-009              lint     = 2.5e-009            
 +ll       = 0                   wl       = 0                   lln      = 1                   
 +wln      = 1                   lw       = 0                   ww       = 0                   
 +lwn      = 1                   wwn      = 1                   lwl      = 0                   
 +wwl      = 0                   llc      = 0                   wlc      = 0                   
 +lwc      = 0                   wwc      = 0                   lwlc     = 0                   
 +wwlc     = 0                   dlc      = 1.172e-008           dwc      = 0                   
 +xpart    = 1                   toxref   = 3e-009              dlcig    = 2.5e-009            
 +xl       = '-3.5e-08+(dxln+dlmisn)'     xw       = '1.5e-8+(dxwn+dwmisn)'   
 +vth0     = '0.228+(dvthn+vthmisn)+dvth0_wpe'
 +wvth0    = '0+dwvthn'          lvth0    = '0+dlvthn'          pvth0    = '0+dpvthn'          
 +k1       = 0.3231             
 +k2       = '0.0056153846+dk2n+dk2_wpe' 
 +lk2      = -2.1230769e-009     
 +k3       = -2.5615385          lk3      = -6.3692308e-008     k3b      = 1.2                 
 +w0       = -5e-008             dvt0     = 13.9                dvt1     = 1.25                
 +dvt2     = 0                   dvt0w    = 0                   dvt1w    = 0                   
 +dvt2w    = 0                   dsub     = 0.5                 minv     = 0                   
 +voffl    = 0                   dvtp0    = 4e-007              dvtp1    = 2                   
 +lpe0     = 4.45e-008           lpeb     = 0                   xj       = 1.5e-007            
 +ngate    = 4e020               ndep     = 8.3687e017          nsd      = 1e020               
 +phin     = 0                   cdsc     = 0                   cdscb    = 0                   
 +cdscd    = 0                   cit      = -0.00076923077      lcit     = 3.5384615e-010      
 +voff     = -0.087976923        lvoff    = -8.2446154e-009     nfactor  = 0.5                 
 +pvoff    = '0+dpvoffn' 
 +eta0     = 0.22                etab     = -0.1               
 +u0       = '(0.037072308)*ku0_wpe' 
 +pu0      = '(0)*ku0_wpe' 
 +wu0      = '(0)*ku0_wpe' 
 +peta0    = '0+dpeta0n' 
 +lu0      = '(9.6953846e-010)*ku0_wpe' 
 +ua       = -6.284e-010         ub       = 1.6767692e-018      
 +lub      = 9.6246154e-026      uc       = 1.4401538e-010      luc      = 1.6736923e-017      
 +vsat     = 114000              a0       = 2.375               ags      = 1.3923077           
 +pvsat    = '0+dpvsatn' 
 +lags     = -8.8461538e-008     a1       = 0                   a2       = 1                   
 +b0       = 0                   b1       = 0                   keta     = -0.058846154        
 +lketa    = 6.3692308e-009      dwg      = 0                   dwb      = 0                   
 +pclm     = 0.84                pdiblc1  = 0                   pdiblc2  = 0.0001              
 +pdiblcb  = 0                   drout    = 0                   pvag     = 1.5                 
 +delta    = 0.0075              pscbe1   = 9.264e008           pscbe2   = 1e-020              
 +fprout   = 200                 pdits    = 0                   pditsd   = 0                   
 +pditsl   = 0                   rsh      = 10.5                rdsw     = 140                 
 +prwg     = 0                   prwb     = 0                   wr       = 1                   
 +alpha0   = 0                   alpha1   = 0.03                beta0    = 8.7                 
 +agidl    = 9e-008              bgidl    = 2.3e009             cgidl    = 0.5                 
 +egidl    = 0.53                aigbacc  = 0.01134             bigbacc  = 0.003249            
 +cigbacc  = 0.1416              nigbacc  = 4.05                aigbinv  = 0.35                
 +bigbinv  = 0.03                cigbinv  = 0.006               eigbinv  = 1.1                 
 +nigbinv  = 1                   aigc     = 0.0103              bigc     = 0.001525            
 +cigc     = 0                   aigsd    = 0.0084494818        laigsd   = 2.3835574e-013      
 +waigsd   = 4.6686012e-010      paigsd   = -2.1475566e-016     bigsd    = 0.0004021           
 +cigsd    = 0.001463            nigc     = 1                   poxedge  = 1                   
 +pigcd    = 2.3                 ntox     = 'ntoxn'             xrcrg1   = 12                
 +xrcrg2   = 1                   cgso     = 'cgon'              cgdo     = 'cgon'              
 +cgbo     = 0                   cgdl     = 'cgln'              cgsl     = 'cgln'              
 +clc      = 1e-007              cle      = 0.6                 cf       = 'cfn'                      
 +ckappas  = 0.6                 acde     = 1.2                 moin     = 12.6                
 +noff     = 1.686               voffcv   = -0.05472            kt1      = -0.20061538         
 +lkt1     = -1.3976923e-008     kt1l     = 0                   kt2      = -0.04464            
 +ute      = -1.58               lute     = 1.84e-008           ua1      = 2.684e-009          
 +ub1      = -3.673e-018         uc1      = -6.421e-011         prt      = 0                   
 +at       = 45000               jss      = 1.77e-07            jsws     = 4.23e-13            
 +jswgs    = 9e-12               njs      = 1                   ijthsfwd = 0.01                
 +ijthsrev = 0.01                bvs      = 10                  xjbvs    = 1                   
 +pbs      = 0.5                 cjs      = 'cjn'               mjs      = 0.25                
 +pbsws    = 0.8                 cjsws    = 'cjswn'             mjsws    = 0.01                
 +pbswgs   = 0.78                cjswgs   = 'cjswgn'            mjswgs   = 0.52                
 +tpb      = 1.00e-03            tcj      = 7.32e-04            tpbsw    = 1.90e-03            
 +tcjsw    = 3.57e-04            tpbswg   = 1.90e-03            tcjswg   = 3.57e-04            
 +xtis     = 3                   dmcg     = 9.25e-008           dmci     = 9.25e-008           
 +dmdg     = 0                   dmcgt    = 0                   dwj      = 0                   
 +xgw      = 0                   xgl      = 0                   rshg     = 0.1                 
 +gbmin    = 1e-012              rbpb     = 50                  rbpd     = 50                  
 +rbps     = 50                  rbdb     = 50                  rbsb     = 50                  
 +ngcon    = 1                   
 +saref    = 0.63e-6             sbref    = 0.63e-6
 +kvsat    = 0.20                 wlod     = 0.8e-6             tku0     = 0.01
 +ku0      = -7.36e-8            llodku0  = 1                   wlodku0  = 1
 +lku0     = 4.027e-7            wku0     = 8e-7                pku0     = -2.0e-13
 +kvth0    = 3.5e-9              stk2     = 1.35e-9             steta0   = 0
 +lkvth0   = -2.68e-11           wkvth0   = 1.5e-6              pkvth0   = 0
 +llodvth  = 1                   wlodvth  = 1                   lodk2    = 0.5
 +lodeta0  = 1
 +fnoimod  = 1                   noia     = 4.2926e+41          noib     = 1.612e+24
 +noic     = 8.75                em       = 1.192e+07           ef       = 0.8841
 +tnoimod  = 0			ntnoi    = noix       )

 .model nch.4 nmos	(	lmin     = 1.0e-07                  lmax     = '2.4000e-07-(dxln+dlmisn)'       
 +wmin     = '1.0000e-05-(dxwn+dwmisn)'         wmax     = 9.001e-04                level    = 54                     
 +version  = 4.4                 binunit  = 2                   paramchk = 1                   
 +mobmod   = 0                   capmod   = 2                   igcmod   = 1                   
 +igbmod   = 1                   diomod   = 1                   rdsmod   = 0                   
 +rbodymod = 0                   rgatemod = 0                   permod   = 1                   
 +acnqsmod = 0                   trnqsmod = 0                   tnom     = 25                  
 +toxe     = '(toxn+toxmisn)'              toxm     = '(toxn+toxmisn)'              dtox     = 3e-010           
 +epsrox   = 3.9                 wint     = 6e-009              lint     = 2.5e-009            
 +ll       = 0                   wl       = 0                   lln      = 1                   
 +wln      = 1                   lw       = 0                   ww       = 0                   
 +lwn      = 1                   wwn      = 1                   lwl      = 0                   
 +wwl      = 0                   llc      = 0                   wlc      = 0                   
 +lwc      = 0                   wwc      = 0                   lwlc     = 0                   
 +wwlc     = 0                   dlc      = 1.172e-008           dwc      = 0                   
 +xpart    = 1                   toxref   = 3e-009              dlcig    = 2.5e-009            
 +xl       = '-3.5e-08+(dxln+dlmisn)'     xw       = '1.5e-8+(dxwn+dwmisn)'   
 +vth0     = '0.228+(dvthn+vthmisn)+dvth0_wpe'
 +wvth0    = '0+dwvthn'          lvth0    = '0+dlvthn'          pvth0    = '0+dpvthn'          
 +k1       = 0.3231             
 +k2       = '-0.010669143+dk2n+dk2_wpe' 
 +lk2      = 1.1338286e-009      
 +k3       = -2.9571429          lk3      = 1.5428571e-008      k3b      = 1.2                 
 +w0       = -5e-008             dvt0     = 13.9                dvt1     = 1.25                
 +dvt2     = 0                   dvt0w    = 0                   dvt1w    = 0                   
 +dvt2w    = 0                   dsub     = 0.5                 minv     = 0                   
 +voffl    = 0                   dvtp0    = 4e-007              dvtp1    = 1.5714286           
 +ldvtp1   = 8.5714286e-008      lpe0     = 4.45e-008           lpeb     = 0                   
 +xj       = 1.5e-007            ngate    = 4e020               ndep     = 8.3687e017          
 +nsd      = 1e020               phin     = 0                   cdsc     = 0                   
 +cdscb    = 0                   cdscd    = 0                   cit      = -0.00012285714      
 +lcit     = 2.2457143e-010      voff     = -0.1175             lvoff    = -2.34e-009          
 +pvoff    = '0+dpvoffn' 
 +nfactor  = 0.5                 eta0     = 0.22                etab     = -0.1                
 +peta0    = '0+dpeta0n' 
 +u0       = '(0.044234286)*ku0_wpe' 
 +pu0      = '(0)*ku0_wpe' 
 +wu0      = '(0)*ku0_wpe' 
 +lu0      = '(-4.6285714e-010)*ku0_wpe' 
 +ua       = -6.284e-010         
 +ub       = 2.1828571e-018      lub      = -4.9714286e-027     uc       = 2.277e-010          
 +vsat     = 114000              a0       = 2.375               ags      = 0.95                
 +pvsat    = '0+dpvsatn' 
 +a1       = 0                   a2       = 1                   b0       = 0                   
 +b1       = 0                   keta     = -0.044142857        lketa    = 3.4285714e-009      
 +dwg      = 0                   dwb      = 0                   pclm     = 0.84                
 +pdiblc1  = 0                   pdiblc2  = 1.4285714e-005      lpdiblc2 = 1.7142857e-011      
 +pdiblcb  = 0                   drout    = 0                   pvag     = 1.5                 
 +delta    = 0.0075              pscbe1   = 9.264e008           pscbe2   = 1e-020              
 +fprout   = 200                 pdits    = 0                   pditsd   = 0                   
 +pditsl   = 0                   rsh      = 10.5                rdsw     = 140                 
 +prwg     = 0                   prwb     = 0                   wr       = 1                   
 +alpha0   = 0                   alpha1   = 0.03                beta0    = 8.7                 
 +agidl    = 9e-008              bgidl    = 2.3e009             cgidl    = 0.5                 
 +egidl    = 0.53                aigbacc  = 0.01134             bigbacc  = 0.003249            
 +cigbacc  = 0.1416              nigbacc  = 4.05                aigbinv  = 0.35                
 +bigbinv  = 0.03                cigbinv  = 0.006               eigbinv  = 1.1                 
 +nigbinv  = 1                   aigc     = 0.010347143         laigc    = -9.4285714e-012     
 +bigc     = 0.001525            cigc     = 0                   aigsd    = 0.0084509623        
 +laigsd   = -5.7738346e-014     waigsd   = -8.6702594e-010     paigsd   = 5.2021557e-017      
 +bigsd    = 0.0004021           cigsd    = 0.001463            nigc     = 1                   
 +poxedge  = 1                   pigcd    = 2.3                 ntox     = 'ntoxn'           
 +xrcrg1   = 12                  xrcrg2   = 1                   cgso     = 'cgon'              
 +cgdo     = 'cgon'              cgbo     = 0                   cgdl     = 'cgln'              
 +cgsl     = 'cgln'              clc      = 1e-007              cle      = 0.6                 
 +cf       = 'cfn'                      ckappas  = 0.6                 acde     = 1.2                 
 +moin     = 12.6                noff     = 1.686               voffcv   = -0.05472            
 +kt1      = -0.2624             lkt1     = -1.62e-009          kt1l     = 0                   
 +kt2      = -0.04464            ute      = -1.5428571          lute     = 1.0971429e-008      
 +ua1      = 2.684e-009          ub1      = -3.673e-018         uc1      = -6.421e-011         
 +prt      = 0                   at       = 35357.143           lat      = 0.0019285714        
 +jss      = 1.77e-07            jsws     = 4.23e-13            jswgs    = 9e-12               
 +njs      = 1                   ijthsfwd = 0.01                ijthsrev = 0.01                
 +bvs      = 10                  xjbvs    = 1                   pbs      = 0.5                 
 +cjs      = 'cjn'               mjs      = 0.25                pbsws    = 0.8                 
 +cjsws    = 'cjswn'             mjsws    = 0.01                pbswgs   = 0.78                
 +cjswgs   = 'cjswgn'            mjswgs   = 0.52                tpb      = 1.00e-03            
 +tcj      = 7.32e-04            tpbsw    = 1.90e-03            tcjsw    = 3.57e-04            
 +tpbswg   = 1.90e-03            tcjswg   = 3.57e-04            xtis     = 3                   
 +dmcg     = 9.25e-008           dmci     = 9.25e-008           dmdg     = 0                   
 +dmcgt    = 0                   dwj      = 0                   xgw      = 0                   
 +xgl      = 0                   rshg     = 0.1                 gbmin    = 1e-012              
 +rbpb     = 50                  rbpd     = 50                  rbps     = 50                  
 +rbdb     = 50                  rbsb     = 50                  ngcon    = 1                   
 +saref    = 0.63e-6             sbref    = 0.63e-6
 +kvsat    = 0.20                 wlod     = 0.8e-6             tku0     = 0.01
 +ku0      = -7.36e-8            llodku0  = 1                   wlodku0  = 1
 +lku0     = 4.027e-7            wku0     = 8e-7                pku0     = -2.0e-13
 +kvth0    = 3.5e-9              stk2     = 1.35e-9             steta0   = 0
 +lkvth0   = -2.68e-11           wkvth0   = 1.5e-6              pkvth0   = 0
 +llodvth  = 1                   wlodvth  = 1                   lodk2    = 0.5
 +lodeta0  = 1
 +fnoimod  = 1                   noia     = 4.2926e+41          noib     = 1.612e+24
 +noic     = 8.75                em       = 1.192e+07           ef       = 0.8841
 +tnoimod  = 0			ntnoi    = noix       )

 .model nch.5 nmos	(	lmin     = '1.0000e-05-(dxln+dlmisn)'         lmax     = 2.001e-05              
 +wmin     = '1.0000e-06-(dxwn+dwmisn)'         wmax     = '1.0000e-05-(dxwn+dwmisn)'         level    = 54                    
 +version  = 4.4                 binunit  = 2                   paramchk = 1                   
 +mobmod   = 0                   capmod   = 2                   igcmod   = 1                   
 +igbmod   = 1                   diomod   = 1                   rdsmod   = 0                   
 +rbodymod = 0                   rgatemod = 0                   permod   = 1                   
 +acnqsmod = 0                   trnqsmod = 0                   tnom     = 25                  
 +toxe     = '(toxn+toxmisn)'              toxm     = '(toxn+toxmisn)'              dtox     = 3e-010           
 +epsrox   = 3.9                 wint     = 6e-009              lint     = 2.5e-009            
 +ll       = 0                   wl       = 0                   lln      = 1                   
 +wln      = 1                   lw       = 0                   ww       = 0                   
 +lwn      = 1                   wwn      = 1                   lwl      = 0                   
 +wwl      = 0                   llc      = 0                   wlc      = 0                   
 +lwc      = 0                   wwc      = 0                   lwlc     = 0                   
 +wwlc     = 0                   dlc      = 1.172e-008           dwc      = 0                   
 +xpart    = 1                   toxref   = 3e-009              dlcig    = 2.5e-009            
 +xl       = '-3.5e-08+(dxln+dlmisn)'     xw       = '1.5e-8+(dxwn+dwmisn)'   
 +vth0     = '0.22744278+(dvthn+vthmisn)+dvth0_wpe'
 +wvth0    = '5.5738939e-009+dwvthn'
 +lvth0    = '0+dlvthn'          pvth0    = '0+dpvthn'          k1       = 0.3231              
 +k2       = '0.008228+dk2n+dk2_wpe' 
 +k3       = -2.7                k3b      = 1.2                 
 +w0       = -5e-008             dvt0     = 13.9                dvt1     = 1.25                
 +dvt2     = 0                   dvt0w    = 0                   dvt1w    = 0                   
 +dvt2w    = 0                   dsub     = 0.5                 minv     = 0                   
 +voffl    = 0                   dvtp0    = 4e-007              dvtp1    = 2                   
 +lpe0     = 4.45e-008           lpeb     = 0                   xj       = 1.5e-007            
 +ngate    = 4e020               ndep     = 8.3687e017          nsd      = 1e020               
 +phin     = 0                   cdsc     = 0                   cdscb    = 0                   
 +cdscd    = 0                   cit      = 0                   voff     = -0.1059             
 +pvoff    = '0+dpvoffn' 
 +nfactor  = 0.5                 eta0     = 0.22133733          weta0    = -1.3377345e-008     
 +peta0    = '0+dpeta0n' 
 +etab     = -0.1               
 +u0       = '(0.039846438)*ku0_wpe' 
 +pu0      = '(0)*ku0_wpe' 
 +lu0      = '(0)*ku0_wpe' 
 +wu0      = '(-6.6663771e-009)*ku0_wpe' 
 +ua       = -6.284e-010         ub       = 2.1867527e-018      wub      = -2.8761292e-025     
 +uc       = 2.315114e-010       wuc      = -3.8125434e-017     vsat     = 114000              
 +pvsat    = '0+dpvsatn' 
 +a0       = 2.375               ags      = 0.95                a1       = 0                   
 +a2       = 1                   b0       = 0                   b1       = 0                   
 +keta     = -0.045              dwg      = 0                   dwb      = 0                   
 +pclm     = 0.84                pdiblc1  = 0                   pdiblc2  = 0.0001              
 +pdiblcb  = 0                   drout    = 0                   pvag     = 1.5                 
 +delta    = 0.0075              pscbe1   = 9.264e008           pscbe2   = 1e-020              
 +fprout   = 200                 pdits    = 0                   pditsd   = 0                   
 +pditsl   = 0                   rsh      = 10.5                rdsw     = 140                 
 +prwg     = 0                   prwb     = 0                   wr       = 1                   
 +alpha0   = 0                   alpha1   = 0.03                beta0    = 8.7                 
 +agidl    = 9e-008              bgidl    = 2.3e009             cgidl    = 0.5                 
 +egidl    = 0.53                aigbacc  = 0.01134             bigbacc  = 0.003249            
 +cigbacc  = 0.1416              nigbacc  = 4.05                aigbinv  = 0.35                
 +bigbinv  = 0.03                cigbinv  = 0.006               eigbinv  = 1.1                 
 +nigbinv  = 1                   aigc     = 0.0103              bigc     = 0.001525            
 +cigc     = 0                   aigsd    = 0.00845             bigsd    = 0.0004021           
 +cigsd    = 0.001463            nigc     = 1                   poxedge  = 1                   
 +pigcd    = 2.3                 ntox     = 'ntoxn'             xrcrg1   = 12                
 +xrcrg2   = 1                   cgso     = 'cgon'              cgdo     = 'cgon'              
 +cgbo     = 0                   cgdl     = 'cgln'              cgsl     = 'cgln'              
 +clc      = 1e-007              cle      = 0.6                 cf       = 'cfn'                      
 +ckappas  = 0.6                 acde     = 1.2                 moin     = 12.6                
 +noff     = 1.686               voffcv   = -0.05472            kt1      = -0.2081             
 +kt1l     = 0                   kt2      = -0.04464            ute      = -1.7473853          
 +wute     = 1.7390549e-007      ua1      = 2.684e-009          ub1      = -3.673e-018         
 +uc1      = -6.421e-011         prt      = 0                   at       = 45000               
 +jss      = 1.77e-07            jsws     = 4.23e-13            jswgs    = 9e-12               
 +njs      = 1                   ijthsfwd = 0.01                ijthsrev = 0.01                
 +bvs      = 10                  xjbvs    = 1                   pbs      = 0.5                 
 +cjs      = 'cjn'               mjs      = 0.25                pbsws    = 0.8                 
 +cjsws    = 'cjswn'             mjsws    = 0.01                pbswgs   = 0.78                
 +cjswgs   = 'cjswgn'            mjswgs   = 0.52                tpb      = 1.00e-03            
 +tcj      = 7.32e-04            tpbsw    = 1.90e-03            tcjsw    = 3.57e-04            
 +tpbswg   = 1.90e-03            tcjswg   = 3.57e-04            xtis     = 3                   
 +dmcg     = 9.25e-008           dmci     = 9.25e-008           dmdg     = 0                   
 +dmcgt    = 0                   dwj      = 0                   xgw      = 0                   
 +xgl      = 0                   rshg     = 0.1                 gbmin    = 1e-012              
 +rbpb     = 50                  rbpd     = 50                  rbps     = 50                  
 +rbdb     = 50                  rbsb     = 50                  ngcon    = 1                   
 +saref    = 0.63e-6             sbref    = 0.63e-6
 +kvsat    = 0.20                 wlod     = 0.8e-6             tku0     = 0.01
 +ku0      = -7.36e-8            llodku0  = 1                   wlodku0  = 1
 +lku0     = 4.027e-7            wku0     = 8e-7                pku0     = -2.0e-13
 +kvth0    = 3.5e-9              stk2     = 1.35e-9             steta0   = 0
 +lkvth0   = -2.68e-11           wkvth0   = 1.5e-6              pkvth0   = 0
 +llodvth  = 1                   wlodvth  = 1                   lodk2    = 0.5
 +lodeta0  = 1
 +fnoimod  = 1                   noia     = 4.2926e+41          noib     = 1.612e+24
 +noic     = 8.75                em       = 1.192e+07           ef       = 0.8841
 +tnoimod  = 0			ntnoi    = noix       )

 .model nch.6 nmos	(	lmin     = '5.0000e-07-(dxln+dlmisn)'         lmax     = '1.0000e-05-(dxln+dlmisn)'      
 +wmin     = '1.0000e-06-(dxwn+dwmisn)'         wmax     = '1.0000e-05-(dxwn+dwmisn)'         level    = 54                    
 +version  = 4.4                 binunit  = 2                   paramchk = 1                   
 +mobmod   = 0                   capmod   = 2                   igcmod   = 1                   
 +igbmod   = 1                   diomod   = 1                   rdsmod   = 0                   
 +rbodymod = 0                   rgatemod = 0                   permod   = 1                   
 +acnqsmod = 0                   trnqsmod = 0                   tnom     = 25                  
 +toxe     = '(toxn+toxmisn)'              toxm     = '(toxn+toxmisn)'              dtox     = 3e-010           
 +epsrox   = 3.9                 wint     = 6e-009              lint     = 2.5e-009            
 +ll       = 0                   wl       = 0                   lln      = 1                   
 +wln      = 1                   lw       = 0                   ww       = 0                   
 +lwn      = 1                   wwn      = 1                   lwl      = 0                   
 +wwl      = 0                   llc      = 0                   wlc      = 0                   
 +lwc      = 0                   wwc      = 0                   lwlc     = 0                   
 +wwlc     = 0                   dlc      = 1.172e-008           dwc      = 0                   
 +xpart    = 1                   toxref   = 3e-009              dlcig    = 2.5e-009            
 +xl       = '-3.5e-08+(dxln+dlmisn)'     xw       = '1.5e-8+(dxwn+dwmisn)'   
 +vth0     = '0.22744278+(dvthn+vthmisn)+dvth0_wpe'
 +wvth0    = '5.5738939e-009+dwvthn'
 +lvth0    = '0+dlvthn'          pvth0    = '0+dpvthn'          k1       = 0.3231              
 +k2       = '0.0085779874+dk2n+dk2_wpe' 
 +lk2      = -3.4858742e-009     wk2      = 4.6819113e-026      
 +pk2      = -4.6631836e-031     k3       = -2.7                k3b      = 1.2                 
 +w0       = -5e-008             dvt0     = 13.9                dvt1     = 1.25                
 +dvt2     = 0                   dvt0w    = 0                   dvt1w    = 0                   
 +dvt2w    = 0                   dsub     = 0.5                 minv     = 0                   
 +voffl    = 0                   dvtp0    = 4e-007              dvtp1    = 2                   
 +lpe0     = 4.45e-008           lpeb     = 0                   xj       = 1.5e-007            
 +ngate    = 4e020               ndep     = 8.3687e017          nsd      = 1e020               
 +phin     = 0                   cdsc     = 0                   cdscb    = 0                   
 +cdscd    = 0                   cit      = 0                   voff     = -0.10596853         
 +lvoff    = 6.8258338e-010      wvoff    = 6.8553028e-010     
 +pvoff    = '-6.8278815e-015+dpvoffn' 
 +nfactor  = 0.5                 eta0     = 0.22133733          weta0    = -1.3377345e-008     
 +peta0    = '0+dpeta0n' 
 +etab     = -0.1               
 +u0       = '(0.039846438)*ku0_wpe' 
 +pu0      = '(0)*ku0_wpe' 
 +lu0      = '(0)*ku0_wpe' 
 +wu0      = '(-6.6663771e-009)*ku0_wpe' 
 +ua       = -6.284e-010         ub       = 2.199281e-018       lub      = -1.2478258e-025     
 +wub      = -2.8118945e-025     pub      = -6.3977788e-032     uc       = 2.3374775e-010      
 +luc      = -2.2274078e-017     wuc      = -3.7585647e-017     puc      = -5.3762847e-024     
 +vsat     = 114000              a0       = 2.375               ags      = 0.93789474          
 +pvsat    = '0+dpvsatn' 
 +lags     = 1.2056842e-007      wags     = -1.4982116e-024     pags     = 1.4922188e-029      
 +a1       = 0                   a2       = 1                   b0       = 0                   
 +b1       = 0                   keta     = -0.045              dwg      = 0                   
 +dwb      = 0                   pclm     = 0.84                pdiblc1  = 0                   
 +pdiblc2  = 0.0001              pdiblcb  = 0                   drout    = 0                   
 +pvag     = 1.5                 delta    = 0.0075              pscbe1   = 9.264e008           
 +pscbe2   = 1e-020              fprout   = 200                 pdits    = 0                   
 +pditsd   = 0                   pditsl   = 0                   rsh      = 10.5                
 +rdsw     = 140                 prwg     = 0                   prwb     = 0                   
 +wr       = 1                   alpha0   = 0                   alpha1   = 0.03                
 +beta0    = 8.7                 agidl    = 9e-008              bgidl    = 2.3e009             
 +cgidl    = 0.5                 egidl    = 0.53                aigbacc  = 0.01134             
 +bigbacc  = 0.003249            cigbacc  = 0.1416              nigbacc  = 4.05                
 +aigbinv  = 0.35                bigbinv  = 0.03                cigbinv  = 0.006               
 +eigbinv  = 1.1                 nigbinv  = 1                   aigc     = 0.0103              
 +bigc     = 0.001525            cigc     = 0                   aigsd    = 0.00845             
 +bigsd    = 0.0004021           cigsd    = 0.001463            nigc     = 1                   
 +poxedge  = 1                   pigcd    = 2.3                 ntox     = 'ntoxn'           
 +xrcrg1   = 12                  xrcrg2   = 1                   cgso     = 'cgon'              
 +cgdo     = 'cgon'              cgbo     = 0                   cgdl     = 'cgln'              
 +cgsl     = 'cgln'              clc      = 1e-007              cle      = 0.6                 
 +cf       = 'cfn'                      ckappas  = 0.6                 acde     = 1.2                 
 +moin     = 12.6                noff     = 1.686               voffcv   = -0.05472            
 +kt1      = -0.20699116         lkt1     = -1.1044067e-008     wkt1     = 1.8727645e-025      
 +pkt1     = -1.8652735e-030     kt1l     = 0                   kt2      = -0.04464            
 +ute      = -1.7568444          lute     = 9.4211843e-008      wute     = 1.7649647e-007      
 +pute     = -2.5806166e-014     ua1      = 2.684e-009          ub1      = -3.673e-018         
 +uc1      = -6.421e-011         prt      = 0                   at       = 45000               
 +jss      = 1.77e-07            jsws     = 4.23e-13            jswgs    = 9e-12               
 +njs      = 1                   ijthsfwd = 0.01                ijthsrev = 0.01                
 +bvs      = 10                  xjbvs    = 1                   pbs      = 0.5                 
 +cjs      = 'cjn'               mjs      = 0.25                pbsws    = 0.8                 
 +cjsws    = 'cjswn'             mjsws    = 0.01                pbswgs   = 0.78                
 +cjswgs   = 'cjswgn'            mjswgs   = 0.52                tpb      = 1.00e-03            
 +tcj      = 7.32e-04            tpbsw    = 1.90e-03            tcjsw    = 3.57e-04            
 +tpbswg   = 1.90e-03            tcjswg   = 3.57e-04            xtis     = 3                   
 +dmcg     = 9.25e-008           dmci     = 9.25e-008           dmdg     = 0                   
 +dmcgt    = 0                   dwj      = 0                   xgw      = 0                   
 +xgl      = 0                   rshg     = 0.1                 gbmin    = 1e-012              
 +rbpb     = 50                  rbpd     = 50                  rbps     = 50                  
 +rbdb     = 50                  rbsb     = 50                  ngcon    = 1                   
 +saref    = 0.63e-6             sbref    = 0.63e-6
 +kvsat    = 0.20                 wlod     = 0.8e-6             tku0     = 0.01
 +ku0      = -7.36e-8            llodku0  = 1                   wlodku0  = 1
 +lku0     = 4.027e-7            wku0     = 8e-7                pku0     = -2.0e-13
 +kvth0    = 3.5e-9              stk2     = 1.35e-9             steta0   = 0
 +lkvth0   = -2.68e-11           wkvth0   = 1.5e-6              pkvth0   = 0
 +llodvth  = 1                   wlodvth  = 1                   lodk2    = 0.5
 +lodeta0  = 1
 +fnoimod  = 1                   noia     = 4.2926e+41          noib     = 1.612e+24
 +noic     = 8.75                em       = 1.192e+07           ef       = 0.8841
 +tnoimod  = 0			ntnoi    = noix       )

 .model nch.7 nmos	(	lmin     = '2.4000e-07-(dxln+dlmisn)'         lmax     = '5.0000e-07-(dxln+dlmisn)'      
 +wmin     = '1.0000e-06-(dxwn+dwmisn)'         wmax     = '1.0000e-05-(dxwn+dwmisn)'         level    = 54                    
 +version  = 4.4                 binunit  = 2                   paramchk = 1                   
 +mobmod   = 0                   capmod   = 2                   igcmod   = 1                   
 +igbmod   = 1                   diomod   = 1                   rdsmod   = 0                   
 +rbodymod = 0                   rgatemod = 0                   permod   = 1                   
 +acnqsmod = 0                   trnqsmod = 0                   tnom     = 25                  
 +toxe     = '(toxn+toxmisn)'              toxm     = '(toxn+toxmisn)'              dtox     = 3e-010           
 +epsrox   = 3.9                 wint     = 6e-009              lint     = 2.5e-009            
 +ll       = 0                   wl       = 0                   lln      = 1                   
 +wln      = 1                   lw       = 0                   ww       = 0                   
 +lwn      = 1                   wwn      = 1                   lwl      = 0                   
 +wwl      = 0                   llc      = 0                   wlc      = 0                   
 +lwc      = 0                   wwc      = 0                   lwlc     = 0                   
 +wwlc     = 0                   dlc      = 1.172e-008           dwc      = 0                   
 +xpart    = 1                   toxref   = 3e-009              dlcig    = 2.5e-009            
 +xl       = '-3.5e-08+(dxln+dlmisn)'     xw       = '1.5e-8+(dxwn+dwmisn)'   
 +vth0     = '0.22744278+(dvthn+vthmisn)+dvth0_wpe'
 +wvth0    = '5.5738939e-009+dwvthn'
 +lvth0    = '0+dlvthn'          pvth0    = '0+dpvthn'          k1       = 0.3231              
 +k2       = '0.0056153846+dk2n+dk2_wpe' 
 +lk2      = -2.1230769e-009     k3       = -2.5615385          
 +lk3      = -6.3692308e-008     k3b      = 1.2                 w0       = -5e-008             
 +dvt0     = 13.9                dvt1     = 1.25                dvt2     = 0                   
 +dvt0w    = 0                   dvt1w    = 0                   dvt2w    = 0                   
 +dsub     = 0.5                 minv     = 0                   voffl    = 0                   
 +dvtp0    = 4e-007              dvtp1    = 2                   lpe0     = 4.45e-008           
 +lpeb     = 0                   xj       = 1.5e-007            ngate    = 4e020               
 +ndep     = 8.3687e017          nsd      = 1e020               phin     = 0                   
 +cdsc     = 0                   cdscb    = 0                   cdscd    = 0                   
 +cit      = -0.00076923077      lcit     = 3.5384615e-010      voff     = -0.086227245        
 +lvoff    = -8.3984087e-009     wvoff    = -1.7502027e-008    
 +pvoff    = '1.5383947e-015+dpvoffn' 
 +nfactor  = 0.5                 eta0     = 0.22133733          weta0    = -1.3377345e-008     
 +peta0    = '0+dpeta0n' 
 +etab     = -0.1               
 +u0       = '(0.037503855)*ku0_wpe' 
 +lu0      = '(1.0775881e-009)*ku0_wpe' 
 +wu0      = '(-4.3167664e-009)*ku0_wpe' 
 +pu0      = '(-1.0808209e-015)*ku0_wpe' 
 +ua       = -6.284e-010         
 +ub       = 1.6835502e-018      lub      = 1.1245361e-025      wub      = -6.7830001e-026     
 +pub      = -1.6212314e-031     uc       = 1.4396909e-010      luc      = 1.9024106e-017      
 +wuc      = 4.6306195e-019      puc      = -2.2878691e-023     vsat     = 114000              
 +pvsat    = '0+dpvsatn' 
 +a0       = 2.375               ags      = 1.3923077           lags     = -8.8461538e-008     
 +a1       = 0                   a2       = 1                   b0       = 0                   
 +b1       = 0                   keta     = -0.058846154        lketa    = 6.3692308e-009      
 +dwg      = 0                   dwb      = 0                   pclm     = 0.84                
 +pdiblc1  = 0                   pdiblc2  = 0.0001              pdiblcb  = 0                   
 +drout    = 0                   pvag     = 1.5                 delta    = 0.0075              
 +pscbe1   = 9.264e008           pscbe2   = 1e-020              fprout   = 200                 
 +pdits    = 0                   pditsd   = 0                   pditsl   = 0                   
 +rsh      = 10.5                rdsw     = 140                 prwg     = 0                   
 +prwb     = 0                   wr       = 1                   alpha0   = 0                   
 +alpha1   = 0.03                beta0    = 8.7                 agidl    = 9e-008              
 +bgidl    = 2.3e009             cgidl    = 0.5                 egidl    = 0.53                
 +aigbacc  = 0.01134             bigbacc  = 0.003249            cigbacc  = 0.1416              
 +nigbacc  = 4.05                aigbinv  = 0.35                bigbinv  = 0.03                
 +cigbinv  = 0.006               eigbinv  = 1.1                 nigbinv  = 1                   
 +aigc     = 0.0103              bigc     = 0.001525            cigc     = 0                   
 +aigsd    = 0.0085012974        laigsd   = -2.3596821e-011     waigsd   = -5.1451328e-011     
 +paigsd   = 2.3667611e-017      bigsd    = 0.0004021           cigsd    = 0.001463            
 +nigc     = 1                   poxedge  = 1                   pigcd    = 2.3                 
 +ntox     = 'ntoxn'             xrcrg1   = 12                  xrcrg2   = 1                 
 +cgso     = 'cgon'              cgdo     = 'cgon'              cgbo     = 0                   
 +cgdl     = 'cgln'              cgsl     = 'cgln'              clc      = 1e-007              
 +cle      = 0.6                 cf       = 'cfn'                      ckappas  = 0.6                 
 +acde     = 1.2                 moin     = 12.6                noff     = 1.686               
 +voffcv   = -0.05472            kt1      = -0.20061538         lkt1     = -1.3976923e-008     
 +kt1l     = 0                   kt2      = -0.04464            ute      = -1.5962366          
 +lute     = 2.0332275e-008      wute     = 1.6241469e-007      pute     = -1.9328549e-014     
 +ua1      = 2.684e-009          ub1      = -3.673e-018         uc1      = -6.421e-011         
 +prt      = 0                   at       = 45000               jss      = 1.77e-07            
 +jsws     = 4.23e-13            jswgs    = 9e-12               njs      = 1                   
 +ijthsfwd = 0.01                ijthsrev = 0.01                bvs      = 10                  
 +xjbvs    = 1                   pbs      = 0.5                 cjs      = 'cjn'               
 +mjs      = 0.25                pbsws    = 0.8                 cjsws    = 'cjswn'             
 +mjsws    = 0.01                pbswgs   = 0.78                cjswgs   = 'cjswgn'            
 +mjswgs   = 0.52                tpb      = 1.00e-03            tcj      = 7.32e-04            
 +tpbsw    = 1.90e-03            tcjsw    = 3.57e-04            tpbswg   = 1.90e-03            
 +tcjswg   = 3.57e-04            xtis     = 3                   dmcg     = 9.25e-008           
 +dmci     = 9.25e-008           dmdg     = 0                   dmcgt    = 0                   
 +dwj      = 0                   xgw      = 0                   xgl      = 0                   
 +rshg     = 0.1                 gbmin    = 1e-012              rbpb     = 50                  
 +rbpd     = 50                  rbps     = 50                  rbdb     = 50                  
 +rbsb     = 50                  ngcon    = 1                   
 +saref    = 0.63e-6             sbref    = 0.63e-6
 +kvsat    = 0.20                 wlod     = 0.8e-6             tku0     = 0.01
 +ku0      = -7.36e-8            llodku0  = 1                   wlodku0  = 1
 +lku0     = 4.027e-7            wku0     = 8e-7                pku0     = -2.0e-13
 +kvth0    = 3.5e-9              stk2     = 1.35e-9             steta0   = 0
 +lkvth0   = -2.68e-11           wkvth0   = 1.5e-6              pkvth0   = 0
 +llodvth  = 1                   wlodvth  = 1                   lodk2    = 0.5
 +lodeta0  = 1
 +fnoimod  = 1                   noia     = 4.2926e+41          noib     = 1.612e+24
 +noic     = 8.75                em       = 1.192e+07           ef       = 0.8841
 +tnoimod  = 0			ntnoi    = noix       )

 .model nch.8 nmos	(	lmin     = 1.0e-07                  lmax     = '2.4000e-07-(dxln+dlmisn)'       
 +wmin     = '1.0000e-06-(dxwn+dwmisn)'         wmax     = '1.0000e-05-(dxwn+dwmisn)'         level    = 54                    
 +version  = 4.4                 binunit  = 2                   paramchk = 1                   
 +mobmod   = 0                   capmod   = 2                   igcmod   = 1                   
 +igbmod   = 1                   diomod   = 1                   rdsmod   = 0                   
 +rbodymod = 0                   rgatemod = 0                   permod   = 1                   
 +acnqsmod = 0                   trnqsmod = 0                   tnom     = 25                  
 +toxe     = '(toxn+toxmisn)'              toxm     = '(toxn+toxmisn)'              dtox     = 3e-010           
 +epsrox   = 3.9                 wint     = 6e-009              lint     = 2.5e-009            
 +ll       = 0                   wl       = 0                   lln      = 1                   
 +wln      = 1                   lw       = 0                   ww       = 0                   
 +lwn      = 1                   wwn      = 1                   lwl      = 0                   
 +wwl      = 0                   llc      = 0                   wlc      = 0                   
 +lwc      = 0                   wwc      = 0                   lwlc     = 0                   
 +wwlc     = 0                   dlc      = 1.172e-008           dwc      = 0                   
 +xpart    = 1                   toxref   = 3e-009              dlcig    = 2.5e-009            
 +xl       = '-3.5e-08+(dxln+dlmisn)'     xw       = '1.5e-8+(dxwn+dwmisn)'   
 +vth0     = '0.22744278+(dvthn+vthmisn)+dvth0_wpe'
 +wvth0    = '5.5738939e-009+dwvthn'
 +lvth0    = '0+dlvthn'          pvth0    = '0+dpvthn'          k1       = 0.32433703          
 +lk1      = -2.4740667e-010     wk1      = -1.2374044e-008     pk1      = 2.4748089e-015      
 +k2       = '-0.011014366+dk2n+dk2_wpe' 
 +lk2      = 1.2028732e-009      wk2      = 3.4532661e-009      
 +pk2      = -6.9065323e-016     k3       = -2.9571429          lk3      = 1.5428571e-008      
 +k3b      = 1.2                 w0       = -5e-008             dvt0     = 13.9                
 +dvt1     = 1.25                dvt2     = 0                   dvt0w    = 0                   
 +dvt1w    = 0                   dvt2w    = 0                   dsub     = 0.5                 
 +minv     = 0                   voffl    = 0                   dvtp0    = 4e-007              
 +dvtp1    = 1.5714286           ldvtp1   = 8.5714286e-008      lpe0     = 4.45e-008           
 +lpeb     = 0                   xj       = 1.5e-007            ngate    = 4e020               
 +ndep     = 8.3687e017          nsd      = 1e020               phin     = 0                   
 +cdsc     = 0                   cdscb    = 0                   cdscd    = 0                   
 +cit      = -0.00012285714      lcit     = 2.2457143e-010      voff     = -0.11586017         
 +lvoff    = -2.4718229e-009     wvoff    = -1.6403173e-008    
 +pvoff    = '1.318624e-015+dpvoffn' 
 +nfactor  = 0.5                 eta0     = 0.22133733          weta0    = -1.3377345e-008     
 +peta0    = '0+dpeta0n' 
 +etab     = -0.1               
 +u0       = '(0.045463996)*ku0_wpe' 
 +lu0      = '(-5.1444e-010)*ku0_wpe' 
 +wu0      = '(-1.2300788e-008)*ku0_wpe' 
 +pu0      = '(5.1598332e-016)*ku0_wpe' 
 +ua       = -6.284e-010         
 +ub       = 2.2915951e-018      lub      = -9.1553714e-027     wub      = -1.0877056e-024     
 +pub      = 4.185198e-032       uc       = 2.4114338e-010      luc      = -4.1075238e-019     
 +wuc      = -1.3447417e-016     puc      = 4.1087561e-024      vsat     = 114000              
 +pvsat    = '0+dpvsatn' 
 +a0       = 2.375               ags      = 0.95                a1       = 0                   
 +a2       = 1                   b0       = 0                   b1       = 0                   
 +keta     = -0.044142857        lketa    = 3.4285714e-009      dwg      = 0                   
 +dwb      = 0                   pclm     = 0.84                pdiblc1  = 0                   
 +pdiblc2  = 1.4285714e-005      lpdiblc2 = 1.7142857e-011      pdiblcb  = 0                   
 +drout    = 0                   pvag     = 1.5                 delta    = 0.0075              
 +pscbe1   = 9.264e008           pscbe2   = 1e-020              fprout   = 200                 
 +pdits    = 0                   pditsd   = 0                   pditsl   = 0                   
 +rsh      = 10.5                rdsw     = 140                 prwg     = 0                   
 +prwb     = 0                   wr       = 1                   alpha0   = 0                   
 +alpha1   = 0.03                beta0    = 8.7                 agidl    = 9e-008              
 +bgidl    = 2.3e009             cgidl    = 0.5                 egidl    = 0.53                
 +aigbacc  = 0.01134             bigbacc  = 0.003249            cigbacc  = 0.1416              
 +nigbacc  = 4.05                aigbinv  = 0.35                bigbinv  = 0.03                
 +cigbinv  = 0.006               eigbinv  = 1.1                 nigbinv  = 1                   
 +aigc     = 0.010347143         laigc    = -9.4285714e-012     bigc     = 0.001525            
 +cigc     = 0                   aigsd    = 0.0083547333        laigsd   = 5.716e-012          
 +waigsd   = 9.5552467e-011      paigsd   = -5.733148e-018      bigsd    = 0.0004021           
 +cigsd    = 0.001463            nigc     = 1                   poxedge  = 1                   
 +pigcd    = 2.3                 ntox     = 'ntoxn'             xrcrg1   = 12                
 +xrcrg2   = 1                   cgso     = 'cgon'              cgdo     = 'cgon'              
 +cgbo     = 0                   cgdl     = 'cgln'              cgsl     = 'cgln'              
 +clc      = 1e-007              cle      = 0.6                 cf       = 'cfn'                      
 +ckappas  = 0.6                 acde     = 1.2                 moin     = 12.6                
 +noff     = 1.686               voffcv   = -0.05472            kt1      = -0.2624             
 +lkt1     = -1.62e-009          kt1l     = 0                   kt2      = -0.04464            
 +ute      = -1.5502921          lute     = 1.1143371e-008      wute     = 7.437167e-008       
 +pute     = -1.7199444e-015     ua1      = 2.684e-009          ub1      = -3.673e-018         
 +uc1      = -6.421e-011         prt      = 0                   at       = 35357.143           
 +lat      = 0.0019285714        jss      = 1.77e-07            jsws     = 4.23e-13            
 +jswgs    = 9e-12               njs      = 1                   ijthsfwd = 0.01                
 +ijthsrev = 0.01                bvs      = 10                  xjbvs    = 1                   
 +pbs      = 0.5                 cjs      = 'cjn'               mjs      = 0.25                
 +pbsws    = 0.8                 cjsws    = 'cjswn'             mjsws    = 0.01                
 +pbswgs   = 0.78                cjswgs   = 'cjswgn'            mjswgs   = 0.52                
 +tpb      = 1.00e-03            tcj      = 7.32e-04            tpbsw    = 1.90e-03            
 +tcjsw    = 3.57e-04            tpbswg   = 1.90e-03            tcjswg   = 3.57e-04            
 +xtis     = 3                   dmcg     = 9.25e-008           dmci     = 9.25e-008           
 +dmdg     = 0                   dmcgt    = 0                   dwj      = 0                   
 +xgw      = 0                   xgl      = 0                   rshg     = 0.1                 
 +gbmin    = 1e-012              rbpb     = 50                  rbpd     = 50                  
 +rbps     = 50                  rbdb     = 50                  rbsb     = 50                  
 +ngcon    = 1                   
 +saref    = 0.63e-6             sbref    = 0.63e-6
 +kvsat    = 0.20                 wlod     = 0.8e-6             tku0     = 0.01
 +ku0      = -7.36e-8            llodku0  = 1                   wlodku0  = 1
 +lku0     = 4.027e-7            wku0     = 8e-7                pku0     = -2.0e-13
 +kvth0    = 3.5e-9              stk2     = 1.35e-9             steta0   = 0
 +lkvth0   = -2.68e-11           wkvth0   = 1.5e-6              pkvth0   = 0
 +llodvth  = 1                   wlodvth  = 1                   lodk2    = 0.5
 +lodeta0  = 1
 +fnoimod  = 1                   noia     = 4.2926e+41          noib     = 1.612e+24
 +noic     = 8.75                em       = 1.192e+07           ef       = 0.8841
 +tnoimod  = 0			ntnoi    = noix       )

 .model nch.9 nmos	(	lmin     = '1.0000e-05-(dxln+dlmisn)'         lmax     = 2.001e-05              
 +wmin     = '5.0000e-07-(dxwn+dwmisn)'         wmax     = '1.0000e-06-(dxwn+dwmisn)'         level    = 54                    
 +version  = 4.4                 binunit  = 2                   paramchk = 1                   
 +mobmod   = 0                   capmod   = 2                   igcmod   = 1                   
 +igbmod   = 1                   diomod   = 1                   rdsmod   = 0                   
 +rbodymod = 0                   rgatemod = 0                   permod   = 1                   
 +acnqsmod = 0                   trnqsmod = 0                   tnom     = 25                  
 +toxe     = '(toxn+toxmisn)'              toxm     = '(toxn+toxmisn)'              dtox     = 3e-010           
 +epsrox   = 3.9                 wint     = 6e-009              lint     = 2.5e-009            
 +ll       = 0                   wl       = 0                   lln      = 1                   
 +wln      = 1                   lw       = 0                   ww       = 0                   
 +lwn      = 1                   wwn      = 1                   lwl      = 0                   
 +wwl      = 0                   llc      = 0                   wlc      = 0                   
 +lwc      = 0                   wwc      = 0                   lwlc     = 0                   
 +wwlc     = 0                   dlc      = 1.172e-008           dwc      = 0                   
 +xpart    = 1                   toxref   = 3e-009              dlcig    = 2.5e-009            
 +xl       = '-3.5e-08+(dxln+dlmisn)'     xw       = '1.5e-8+(dxwn+dwmisn)'   
 +vth0     = '0.23803+(dvthn+vthmisn)+dvth0_wpe'
 +wvth0    = '-5.04509e-009+dwvthn'
 +lvth0    = '0+dlvthn'          pvth0    = '0+dpvthn'          k1       = 0.3231              
 +k2       = '0.008228+dk2n+dk2_wpe' 
 +k3       = -2.7                k3b      = 1.2                 
 +w0       = -5e-008             dvt0     = 13.9                dvt1     = 1.25                
 +dvt2     = 0                   dvt0w    = 0                   dvt1w    = 0                   
 +dvt2w    = 0                   dsub     = 0.5                 minv     = 0                   
 +voffl    = 0                   dvtp0    = 4e-007              dvtp1    = 2                   
 +lpe0     = 4.45e-008           lpeb     = 0                   xj       = 1.5e-007            
 +ngate    = 4e020               ndep     = 8.3687e017          nsd      = 1e020               
 +phin     = 0                   cdsc     = 0                   cdscb    = 0                   
 +cdscd    = 0                   cit      = 0                   voff     = -0.0997634          
 +pvoff    = '0+dpvoffn' 
 +wvoff    = -6.1550098e-009     nfactor  = 0.5                 eta0     = 0.227114            
 +peta0    = '0+dpeta0n' 
 +weta0    = -1.9171342e-008     etab     = -0.1               
 +u0       = '(0.0376264)*ku0_wpe' 
 +pu0      = '(0)*ku0_wpe' 
 +lu0      = '(0)*ku0_wpe' 
 +wu0      = '(-4.4396792e-009)*ku0_wpe' 
 +ua       = -6.284e-010         ub       = 2.168602e-018       
 +wub      = -2.6940781e-025     uc       = 2.368586e-010       wuc      = -4.3488676e-017     
 +vsat     = 114000              a0       = 2.375               ags      = 0.95                
 +pvsat    = '0+dpvsatn' 
 +a1       = 0                   a2       = 1                   b0       = 0                   
 +b1       = 0                   keta     = -0.045              dwg      = 0                   
 +dwb      = 0                   pclm     = 0.84                pdiblc1  = 0                   
 +pdiblc2  = 0.0001              pdiblcb  = 0                   drout    = 0                   
 +pvag     = 1.5                 delta    = 0.0075              pscbe1   = 9.264e008           
 +pscbe2   = 1e-020              fprout   = 200                 pdits    = 0                   
 +pditsd   = 0                   pditsl   = 0                   rsh      = 10.5                
 +rdsw     = 140                 prwg     = 0                   prwb     = 0                   
 +wr       = 1                   alpha0   = 0                   alpha1   = 0.03                
 +beta0    = 8.7                 agidl    = 9e-008              bgidl    = 2.3e009             
 +cgidl    = 0.5                 egidl    = 0.53                aigbacc  = 0.01134             
 +bigbacc  = 0.003249            cigbacc  = 0.1416              nigbacc  = 4.05                
 +aigbinv  = 0.35                bigbinv  = 0.03                cigbinv  = 0.006               
 +eigbinv  = 1.1                 nigbinv  = 1                   aigc     = 0.0103              
 +bigc     = 0.001525            cigc     = 0                   aigsd    = 0.00845             
 +bigsd    = 0.0004021           cigsd    = 0.001463            nigc     = 1                   
 +poxedge  = 1                   pigcd    = 2.3                 ntox     = 'ntoxn'           
 +xrcrg1   = 12                  xrcrg2   = 1                   cgso     = 'cgon'              
 +cgdo     = 'cgon'              cgbo     = 0                   cgdl     = 'cgln'              
 +cgsl     = 'cgln'              clc      = 1e-007              cle      = 0.6                 
 +cf       = 'cfn'                      ckappas  = 0.6                 acde     = 1.2                 
 +moin     = 12.6                noff     = 1.686               voffcv   = -0.05472            
 +kt1      = -0.2081             kt1l     = 0                   kt2      = -0.04464            
 +ute      = -1.68466            wute     = 1.1099198e-007      ua1      = 2.684e-009          
 +ub1      = -3.673e-018         uc1      = -6.421e-011         prt      = 0                   
 +at       = 45000               jss      = 1.77e-07            jsws     = 4.23e-13            
 +jswgs    = 9e-12               njs      = 1                   ijthsfwd = 0.01                
 +ijthsrev = 0.01                bvs      = 10                  xjbvs    = 1                   
 +pbs      = 0.5                 cjs      = 'cjn'               mjs      = 0.25                
 +pbsws    = 0.8                 cjsws    = 'cjswn'             mjsws    = 0.01                
 +pbswgs   = 0.78                cjswgs   = 'cjswgn'            mjswgs   = 0.52                
 +tpb      = 1.00e-03            tcj      = 7.32e-04            tpbsw    = 1.90e-03            
 +tcjsw    = 3.57e-04            tpbswg   = 1.90e-03            tcjswg   = 3.57e-04            
 +xtis     = 3                   dmcg     = 9.25e-008           dmci     = 9.25e-008           
 +dmdg     = 0                   dmcgt    = 0                   dwj      = 0                   
 +xgw      = 0                   xgl      = 0                   rshg     = 0.1                 
 +gbmin    = 1e-012              rbpb     = 50                  rbpd     = 50                  
 +rbps     = 50                  rbdb     = 50                  rbsb     = 50                  
 +ngcon    = 1                   
 +saref    = 0.63e-6             sbref    = 0.63e-6
 +kvsat    = 0.20                 wlod     = 0.8e-6             tku0     = 0.01
 +ku0      = -7.36e-8            llodku0  = 1                   wlodku0  = 1
 +lku0     = 4.027e-7            wku0     = 8e-7                pku0     = -2.0e-13
 +kvth0    = 3.5e-9              stk2     = 1.35e-9             steta0   = 0
 +lkvth0   = -2.68e-11           wkvth0   = 1.5e-6              pkvth0   = 0
 +llodvth  = 1                   wlodvth  = 1                   lodk2    = 0.5
 +lodeta0  = 1
 +fnoimod  = 1                   noia     = 4.2926e+41          noib     = 1.612e+24
 +noic     = 8.75                em       = 1.192e+07           ef       = 0.8841
 +tnoimod  = 0			ntnoi    = noix       )

 .model nch.10 nmos	(	lmin     = '5.0000e-07-(dxln+dlmisn)'         lmax     = '1.0000e-05-(dxln+dlmisn)'      
 +wmin     = '5.0000e-07-(dxwn+dwmisn)'         wmax     = '1.0000e-06-(dxwn+dwmisn)'         level    = 54                    
 +version  = 4.4                 binunit  = 2                   paramchk = 1                   
 +mobmod   = 0                   capmod   = 2                   igcmod   = 1                   
 +igbmod   = 1                   diomod   = 1                   rdsmod   = 0                   
 +rbodymod = 0                   rgatemod = 0                   permod   = 1                   
 +acnqsmod = 0                   trnqsmod = 0                   tnom     = 25                  
 +toxe     = '(toxn+toxmisn)'              toxm     = '(toxn+toxmisn)'              dtox     = 3e-010           
 +epsrox   = 3.9                 wint     = 6e-009              lint     = 2.5e-009            
 +ll       = 0                   wl       = 0                   lln      = 1                   
 +wln      = 1                   lw       = 0                   ww       = 0                   
 +lwn      = 1                   wwn      = 1                   lwl      = 0                   
 +wwl      = 0                   llc      = 0                   wlc      = 0                   
 +lwc      = 0                   wwc      = 0                   lwlc     = 0                   
 +wwlc     = 0                   dlc      = 1.172e-008           dwc      = 0                   
[...]
    WLODVTH  =      1 
    LKU0     = 1.33e-007 
    WKU0     = 6.5e-007 
    PKU0     =      0 
    LKVTH0   = -1.68e-015 
    WKVTH0   = 5e-007 
    PKVTH0   =      0 
    STK2     = 4e-010 
    LODK2    =      2 
    STETA0   =      0 
    LODETA0  =      1 
    LXRCRG1  =      0 
    WXRCRG1  =      0 
    PXRCRG1  =      0 
    LXRCRG2  =      0 
    WXRCRG2  =      0 
    PXRCRG2  =      0 
 

    *** UCB's BSIM4.4.0 new diode model is activated. ***
    *** UCB's Diode Model Parameters ***

    JTSS         =      0 
    JTSSWS       =      0 
    JTSSWGS      =      0 
    JTSD         =      0 
    JTSSWD       =      0 
    JTSSWGD      =      0 
    NJTS         =     20 
    NJTSSW       =     20 
    NJTSSWG      =     20 
    XTSS         =   0.02 
    XTSSWS       =   0.02 
    XTSSWGS      =   0.02 
    XTSD         =   0.02 
    XTSSWD       =   0.02 
    XTSSWGD      =   0.02 
    TNJTS        =      0 
    TNJTSSW      =      0 
    TNJTSSWG     =      0 
    VFBSDOFF     =      0 
    LVFBSDOFF    =      0 
    WVFBSDOFF    =      0 
    PVFBSDOFF    =      0 
    LINTNOI      =      0 
    VTSS         =     10 
    VTSD         =     10 
    VTSSWS       =     10 
    VTSSWD       =     10 
    VTSSWGS      =     10 
    VTSSWGD      =     10 
    TTDIOMOD     =      1 
 

 
Model Name: nch.12  

 BSIM4 Model (Level 54)

    MOBMOD = 0
    BINUNIT = 2
    PARAMCHK = 1
    CAPMOD = 2
    DIOMOD = 1
    RDSMOD = 0
    TRNQSMOD = 0
    ACNQSMOD = 0
    RBODYMOD = 0
    RGATEMOD = 0
    PERMOD = 1
    GEOMOD = 0
    RGEOMOD = 0
    FNOIMOD = 1
    TNOIMOD = 0
    IGCMOD = 1
    IGBMOD = 1
    STIMOD = 1
    VBFWDMOD = 0
    VERSION =    4.4 
    TOXREF = 3e-009 
    TOXE = 2.33e-009 
    TOXP = 2.03e-009 
    TOXM = 2.33e-009 
    DTOX = 3e-010 
    EPSROX =    3.9 
    CDSC =      0 
    CDSCB =      0 
    CDSCD =      0 
    CIT = -0.0001229 
    NFACTOR =    0.5 
    XJ = 1.5e-007 
    VSAT = 1.14e+005 
    A0 =  2.375 
    AGS =   0.95 
    A1 =      0 
    A2 =      1 
    AT = 3.536e+004 
    KETA = -0.04414 
    NSUB = 6e+016 
    NDEP = 8.369e+017 
    NSD = 1e+020 
    NGATE = 4e+020 
    GAMMA1 =      0 
    GAMMA2 =      0 
    VBX =      0 
    VBM =     -3 
    XT = 1.55e-007 
    K1 =  0.312 
    KT1 = -0.2624 
    KT1L =      0 
    KT2 = -0.04464 
    K2 = -0.005847 
    K3 = -2.957 
    K3B =    1.2 
    LPE0 = 4.45e-008 
    LPEB =      0 
    DVTP0 = 4e-007 
    DVTP1 =   1.14 
    W0 = -5e-008 
    DVT0 =   13.9 
    DVT1 =   1.25 
    DVT2 =      0 
    DVT0W =      0 
    DVT1W =      0 
    DVT2W =      0 
    DROUT =      0 
    DSUB =    0.5 
    VTH0 =  0.238 
    EU =   1.67 
    UA = -6.284e-010 
    UA1 = 2.684e-009 
    UB = 1.394e-018 
    UB1 = -3.673e-018 
    UC = 1.118e-010 
    UC1 = 3.681e-011 
    U0 = 0.03763 
    UTE = -1.566 
    VOFF = -0.1318 
    VOFFL =      0 
    MINV =      0 
    FPROUT =    200 
    PDITS =      0 
    PDITSD =      0 
    PDITSL =      0 
    DELTA = 0.0075 
    RDSW =    140 
    RDSWMIN =      0 
    RDWMIN =      0 
    RSWMIN =      0 
    RDW =    100 
    RSW =    100 
    PRWG =      0 
    PRWB =      0 
    PRT =      0 
    ETA0 = 0.2271 
    ETAB =   -0.1 
    PCLM =   0.84 
    PDIBLC1 =      0 
    PDIBLC2 = -7.194e-005 
    PDIBLCB =      0 
    PSCBE1 = 9.264e+008 
    PSCBE2 = 1e-020 
    PVAG =    1.5 
    WR =      1 
    DWG =      0 
    DWB =      0 
    XW = 1e-008 
    XWREF = 1e-008 
    XL = -3.5e-008 
    XLREF = -3.5e-008 
    B0 =      0 
    B1 =      0 
    ALPHA0 =      0 
    ALPHA1 =   0.03 
    AGIDL = 9e-008 
    BGIDL = 2.3e+009 
    CGIDL =    0.5 
    PHIN =      0 
    EGIDL =   0.53 
    AIGC = 0.01039 
    BIGC = 0.001525 
    CIGC =      0 
    AIGSD = 0.00845 
    BIGSD = 0.0004021 
    CIGSD = 0.001463 
    AIGBACC = 0.01134 
    BIGBACC = 0.003249 
    CIGBACC = 0.1416 
    AIGBINV =   0.35 
    BIGBINV =   0.03 
    CIGBINV =  0.006 
    NIGC =      1 
    NIGBINV =      1 
    NIGBACC =   4.05 
    NTOX =      1 
    EIGBINV =    1.1 
    PIGCD =    2.3 
    POXEDGE =      1 
    XRCRG1 =     12 
    TNOIA =    1.5 
    TNOIB =    3.5 
    NTNOI =      1 
    XRCRG2 =      1 
    BETA0 =    8.7 
    IJTHDFWD =   0.01 
    IJTHSFWD =   0.01 
    IJTHDREV =   0.01 
    IJTHSREV =   0.01 
    XJBVD =      1 
    XJBVS =      1 
    BVD =     10 
    BVS =     10 
    VFB =     -1 
    GBMIN = 1e-012 
    RBDB =     50 
    RBPB =     50 
    RBSB =     50 
    RBPS =     50 
    RBPD =     50 
    CGSL = 6.514e-011 
    CGDL = 6.514e-011 
    CKAPPAS =    0.6 
    CKAPPAD =    0.6 
    CF = 1.38e-010 
    CLC = 1e-007 
    CLE =    0.6 
    DWC =      0 
    DLC = 1.172e-008 
    DLCIG = 2.5e-009 
    DWJ =      0 
    VFBCV =     -1 
    ACDE =    1.2 
    MOIN =   12.6 
    NOFF =  1.686 
    VOFFCV = -0.05472 
    DMCG = 9.25e-008 
    DMCI = 9.25e-008 
    DMDG =      0 
    DMCGT =      0 
    XGW =      0 
    XGL =      0 
    RSHG =    0.1 
    NGCON =      1 
    TCJ = 0.000732 
    TPB =  0.001 
    TCJSW = 0.000357 
    TPBSW = 0.0019 
    TCJSWG = 0.000357 
    TPBSWG = 0.0019 
    SK0 =      0 
    SK1 =      0 
    SK2 =      0 
    SL = 2e-006 
    SW = 2e-006 
    K =      0 
    LCIT = 2.246e-010 
    LAT = 0.001929 
    LKETA = 3.429e-009 
    LK1 = 2.22e-009 
    LKT1 = -1.62e-009 
    LK2 = 1.694e-010 
    LK3 = 1.543e-008 
    LDVTP1 = 1.719e-007 
    LUB = 4.447e-026 
    LUC = 7.247e-018 
    LUC1 = -6.061e-018 
    LUTE = 1.236e-008 
    LVOFF = -8.64e-010 
    LPDIBLC2 = 3.439e-011 
    LAIGC = -1.891e-011 
    WK2 = -1.73e-009 
    WDVTP1 = 4.324e-007 
    WVTH0 = -5.045e-009 
    WUB = -1.875e-025 
    WUC = -4.742e-018 
    WUC1 = -1.013e-016 
    WU0 = -4.44e-009 
    WUTE = 9.038e-008 
    WVOFF = -4.469e-010 
    WETA0 = -1.917e-008 
    WPDIBLC2 = 8.649e-011 
    WAIGC = -4.757e-011 
    PK2 = 3.459e-016 
    PDVTP1 = -8.649e-014 
    PUB = -1.194e-032 
    PUC = -3.572e-024 
    PUC1 = 6.079e-024 
    PUTE = -2.941e-015 
    PVOFF = -2.941e-016 
    PPDIBLC2 = -1.73e-017 
    PAIGC = 9.514e-018 
    TNOM =  298.1 
    CGSO = 1.209e-010 
    CGDO = 1.209e-010 
    CGBO =      0 
    XPART =      1 
    RSH =   10.5 
    JSS = 1.77e-007 
    JSWS = 4.23e-013 
    JSWGS = 9e-012 
    PBS =    0.5 
    MJS =   0.25 
    PBSWS =    0.8 
    MJSWS =   0.01 
    CJS = 0.00098 
    CJSWS = 4e-011 
    NJS =      1 
    PBSWGS =   0.78 
    MJSWGS =   0.52 
    CJSWGS = 3.7e-010 
    XTIS =      3 
    JSD = 1.77e-007 
    JSWD = 4.23e-013 
    JSWGD = 9e-012 
    PBD =    0.5 
    MJD =   0.25 
    PBSWD =    0.8 
    MJSWD =   0.01 
    CJD = 0.00098 
    CJSWD = 4e-011 
    NJD =      1 
    PBSWGD =   0.78 
    MJSWGD =   0.52 
    CJSWGD = 3.7e-010 
    XTID =      3 
    LMLT =      1 
    WMLT =      1 
    LINT = 2.5e-009 
    LL =      0 
    LLC =      0 
    LLN =      1 
    LW =      0 
    LWC =      0 
    LWN =      1 
    LWL =      0 
    LWLC =      0 
    LMIN = 1e-007 
    LMAX = 2.4e-007 
    WINT = 6e-009 
    WL =      0 
    WLC =      0 
    WLN =      1 
    WW =      0 
    WWC =      0 
    WWN =      1 
    WWL =      0 
    WWLC =      0 
    WMIN = 5.05e-007 
    WMAX = 1.005e-006 
    NOIA = 4.293e+041 
    NOIB = 1.612e+024 
    NOIC =   8.75 
    EM = 1.192e+007 
    EF = 0.8841 
    AF =      1 
    KF =      0 
    TRS =      0 
    TRD =      0 
    TEMPMOD  =      0 
    LAMBDA   =      0 
    VTL      = 2e+005 m/s
    LC       = 5e-009 
    XN       =      3 
    LLAMBDA  =      0 
    LVTL     =      0 
    LXN      =      0 
    WLAMBDA  =      0 
    WVTL     =      0 
    WXN      =      0 
    PLAMBDA  =      0 
    PVTL     =      0 
    PXN      =      0 
    RNOIA    =  0.577 
    RNOIB    = 0.5164 
    SAREF(SA0) = 6.3e-007 m
    SBREF(SB0) = 6.3e-007 m
    WLOD     = 8e-007 m
    KU0      = -7.36e-008 1/m
    KVSAT    =    0.2 
    KVTH0    = 3.5e-009 m
    TKU0     =   0.01 
    LLODKU0  =      1 
    WLODKU0  =      1 
    LLODVTH  =      1 
    WLODVTH  =      1 
    LKU0     = 4.027e-007 
    WKU0     = 8e-007 
    PKU0     = -2e-013 
    LKVTH0   = -2.68e-011 
    WKVTH0   = 1.5e-006 
    PKVTH0   =      0 
    STK2     = 1.35e-009 
    LODK2    =    0.5 
    STETA0   =      0 
    LODETA0  =      1 
    LXRCRG1  =      0 
    WXRCRG1  =      0 
    PXRCRG1  =      0 
    LXRCRG2  =      0 
    WXRCRG2  =      0 
    PXRCRG2  =      0 
 

    *** UCB's BSIM4.4.0 new diode model is activated. ***
    *** UCB's Diode Model Parameters ***

    JTSS         =      0 
    JTSSWS       =      0 
    JTSSWGS      =      0 
    JTSD         =      0 
    JTSSWD       =      0 
    JTSSWGD      =      0 
    NJTS         =     20 
    NJTSSW       =     20 
    NJTSSWG      =     20 
    XTSS         =   0.02 
    XTSSWS       =   0.02 
    XTSSWGS      =   0.02 
    XTSD         =   0.02 
    XTSSWD       =   0.02 
    XTSSWGD      =   0.02 
    TNJTS        =      0 
    TNJTSSW      =      0 
    TNJTSSWG     =      0 
    VFBSDOFF     =      0 
    LVFBSDOFF    =      0 
    WVFBSDOFF    =      0 
    PVFBSDOFF    =      0 
    LINTNOI      =      0 
    VTSS         =     10 
    VTSD         =     10 
    VTSSWS       =     10 
    VTSSWD       =     10 
    VTSSWGS      =     10 
    VTSSWGD      =     10 
    TTDIOMOD     =      1 
 

 
Model Name: pch.15  

 BSIM4 Model (Level 54)

    MOBMOD = 0
    BINUNIT = 2
    PARAMCHK = 1
    CAPMOD = 2
    DIOMOD = 1
    RDSMOD = 0
    TRNQSMOD = 0
    ACNQSMOD = 0
    RBODYMOD = 0
    RGATEMOD = 0
    PERMOD = 1
    GEOMOD = 0
    RGEOMOD = 0
    FNOIMOD = 1
    TNOIMOD = 0
    IGCMOD = 1
    IGBMOD = 1
    STIMOD = 1
    VBFWDMOD = 0
    VERSION =    4.4 
    TOXREF = 3e-009 
    TOXE = 2.5e-009 
    TOXP = 1.975e-009 
    TOXM = 2.5e-009 
    DTOX = 5.25e-010 
    EPSROX =    3.9 
    CDSC =      0 
    CDSCB =      0 
    CDSCD =      0 
    CIT = 0.002155 
    NFACTOR = 0.1143 
    XJ = 1.7e-007 
    VSAT = 1.2e+005 
    A0 =   3.62 
    AGS =   8.03 
    A1 =      0 
    A2 =      1 
    AT = 2.203e+005 
    KETA = -0.2509 
    NSUB = 6e+016 
    NDEP = 1.72e+017 
    NSD = 1e+020 
    NGATE = 8e+019 
    GAMMA1 =      0 
    GAMMA2 =      0 
    VBX =      0 
    VBM =     -3 
    XT = 1.55e-007 
    K1 = 0.1623 
    KT1 = -0.2689 
    KT1L =      0 
    KT2 = -0.03875 
    K2 = 0.03642 
    K3 =  -0.58 
    K3B =    0.8 
    LPE0 = 2.805e-007 
    LPEB = 1e-007 
    DVTP0 =      0 
    DVTP1 =      0 
    W0 =      0 
    DVT0 =     10 
    DVT1 =   1.71 
    DVT2 = 0.0928 
    DVT0W =      0 
    DVT1W =      0 
    DVT2W =      0 
    DROUT =      0 
    DSUB =    0.5 
    VTH0 = -0.1742 
    EU =      1 
    UA = -8.699e-010 
    UA1 = 2.132e-009 
    UB = 3.09e-018 
    UB1 = -4.628e-018 
    UC = 1.578e-010 
    UC1 = -6.421e-011 
    U0 = 0.008807 
    UTE = -1.297 
    VOFF = -0.1095 
    VOFFL =      0 
    MINV =      0 
    FPROUT =   1000 
    PDITS =      0 
    PDITSD =      0 
    PDITSL =      0 
    DELTA =   0.02 
    RDSW =    210 
    RDSWMIN =      0 
    RDWMIN =      0 
    RSWMIN =      0 
    RDW =    100 
    RSW =    100 
    PRWG =      0 
    PRWB =      0 
    PRT =      0 
    ETA0 = 0.1598 
    ETAB = -0.004001 
    PCLM = 0.6429 
    PDIBLC1 =      0 
    PDIBLC2 =  0.005 
    PDIBLCB =      0 
    PSCBE1 = 9.264e+008 
    PSCBE2 = 1e-020 
    PVAG =      0 
    WR =      1 
    DWG =      0 
    DWB =      0 
    XW = 1e-008 
    XWREF = 1e-008 
    XL = -3.5e-008 
    XLREF = -3.5e-008 
    B0 =      0 
    B1 =      0 
    ALPHA0 =      0 
    ALPHA1 =   0.06 
    AGIDL = 9e-008 
    BGIDL = 2.3e+009 
    CGIDL =    0.5 
    PHIN =      0 
    EGIDL =   0.53 
    AIGC = 0.00606 
    BIGC = 0.0007625 
    CIGC = 1e-010 
    AIGSD = 0.004621 
    BIGSD =      0 
    CIGSD = 0.002267 
    AIGBACC = 0.01069 
    BIGBACC = 0.003132 
    CIGBACC = 0.1498 
    AIGBINV =   0.35 
    BIGBINV =   0.03 
    CIGBINV =  0.006 
    NIGC =      1 
    NIGBINV =      1 
    NIGBACC =  4.049 
    NTOX =      1 
    EIGBINV =    1.1 
    PIGCD =    2.3 
    POXEDGE =      1 
    XRCRG1 =     12 
    TNOIA =    1.5 
    TNOIB =    3.5 
    NTNOI =      1 
    XRCRG2 =      1 
    BETA0 =     12 
    IJTHDFWD =   0.01 
    IJTHSFWD =   0.01 
    IJTHDREV =   0.01 
    IJTHSREV =   0.01 
    XJBVD =      1 
    XJBVS =      1 
    BVD =     10 
    BVS =     10 
    VFB =     -1 
    GBMIN = 1e-012 
    RBDB =     50 
    RBPB =     50 
    RBSB =     50 
    RBPS =     50 
    RBPD =     50 
    CGSL = 1.896e-010 
    CGDL = 1.896e-010 
    CKAPPAS =    0.6 
    CKAPPAD =    0.6 
    CF = 1.38e-010 
    CLC = 1e-007 
    CLE =    0.6 
    DWC =      0 
    DLC = 1.525e-008 
    DLCIG = 2.5e-009 
    DWJ =      0 
    VFBCV =     -1 
    ACDE =    1.2 
    MOIN =  11.09 
    NOFF =  2.175 
    VOFFCV = -0.03885 
    DMCG = 9.25e-008 
    DMCI = 9.25e-008 
    DMDG =      0 
    DMCGT =      0 
    XGW =      0 
    XGL =      0 
    RSHG =    0.1 
    NGCON =      1 
    TCJ = 0.000854 
    TPB = 0.0019 
    TCJSW = 0.000357 
    TPBSW = 0.0019 
    TCJSWG = 0.00312 
    TPBSWG = 0.0019 
    SK0 =      0 
    SK1 =      0 
    SK2 =      0 
    SL = 2e-006 
    SW = 2e-006 
    K =      0 
    LCIT = 1.71e-010 
    LNFACTOR = 7.714e-008 
    LAT = -0.01054 
    LAGS = -1.848e-007 
    LKETA = 1.611e-008 
    LKT1 = 4.621e-010 
    LK2 = -2.011e-010 
    LVTH0 = 1.994e-009 
    LUA = 4.203e-017 
    LUA1 = 5.576e-017 
    LUB = -6.112e-026 
    LUB1 = -3.65e-026 
    LUC = -2.337e-018 
    LU0 = -9.269e-011 
    LUTE = 2.026e-008 
    LVOFF = -8.701e-010 
    LETA0 = -3.883e-009 
    LETAB = -3.2e-009 
    LPCLM = -2.657e-008 
    WCIT = -1.233e-009 
    WAT = 0.02869 
    WAGS = -2.175e-006 
    WKT1 = 1.266e-008 
    WK2 = -3.422e-009 
    WVTH0 = -2.567e-009 
    WUA = 2.043e-016 
    WUA1 = -4.531e-016 
    WUB = -3.998e-025 
    WUB1 = 4.866e-025 
    WUC = -3.527e-017 
    WU0 = -2.77e-010 
    WUTE = -3.219e-008 
    WVOFF = -8.41e-009 
    WETA0 = -5.365e-008 
    WETAB = -5.742e-009 
    WAIGSD = 3.959e-011 
    PCIT = 4.35e-017 
    PAT = -1.474e-009 
    PAGS = 4.35e-013 
    PKT1 = -2.532e-015 
    PK2 = 4.002e-016 
    PVTH0 = 3.306e-016 
    PUA = -3.821e-023 
    PUA1 = -2.245e-023 
    PUB = 2.636e-032 
    PUB1 = 5.107e-032 
    PUC = 2.116e-024 
    PU0 = -5.768e-017 
    PUTE = -3.306e-015 
    PVOFF = 4.437e-016 
    PETA0 = 2.61e-015 
    PETAB = 1.148e-015 
    TNOM =  298.1 
    CGSO = 2.568e-011 
    CGDO = 2.568e-011 
    CGBO =      0 
    XPART =      1 
    RSH =   9.68 
    JSS = 1.245e-007 
    JSWS = 3.77e-013 
    JSWGS = 3e-012 
    PBS =    0.8 
    MJS =   0.36 
    PBSWS =    0.8 
    MJSWS =   0.01 
    CJS = 0.00114 
    CJSWS = 6e-011 
    NJS =      1 
    PBSWGS =      1 
    MJSWGS =   0.99 
    CJSWGS = 3.6e-010 
    XTIS =      3 
    JSD = 1.245e-007 
    JSWD = 3.77e-013 
    JSWGD = 3e-012 
    PBD =    0.8 
    MJD =   0.36 
    PBSWD =    0.8 
    MJSWD =   0.01 
    CJD = 0.00114 
    CJSWD = 6e-011 
    NJD =      1 
    PBSWGD =      1 
    MJSWGD =   0.99 
    CJSWGD = 3.6e-010 
    XTID =      3 
    LMLT =      1 
    WMLT =      1 
    LINT = 2.5e-009 
    LL =      0 
    LLC =      0 
    LLN =      1 
    LW =      0 
    LWC =      0 
    LWN =      1 
    LWL =      0 
    LWLC =      0 
    LMIN = 1e-007 
    LMAX = 2.4e-007 
    WINT = 5e-009 
    WL =      0 
    WLC =      0 
    WLN =      1 
    WW =      0 
    WWC =      0 
    WWN =      1 
    WWL =      0 
    WWLC =      0 
    WMIN = 5.05e-007 
    WMAX = 1.005e-006 
    NOIA = 1.635e+042 
    NOIB = 7.241e+026 
    NOIC =   8.75 
    EM = 1.5e+008 
    EF =   1.19 
    AF =      1 
    KF =      0 
    TRS =      0 
    TRD =      0 
    TEMPMOD  =      0 
    LAMBDA   =      0 
    VTL      = 2e+005 m/s
    LC       = 5e-009 
    XN       =      3 
    LLAMBDA  =      0 
    LVTL     =      0 
    LXN      =      0 
    WLAMBDA  =      0 
    WVTL     =      0 
    WXN      =      0 
    PLAMBDA  =      0 
    PVTL     =      0 
    PXN      =      0 
    RNOIA    =  0.577 
    RNOIB    = 0.5164 
    SAREF(SA0) = 6.3e-007 m
    SBREF(SB0) = 6.3e-007 m
    WLOD     = 8e-007 m
    KU0      = 1.325e-007 1/m
    KVSAT    =   -0.9 
    KVTH0    = -1.5e-009 m
    TKU0     =    0.1 
    LLODKU0  =      1 
    WLODKU0  =      1 
    LLODVTH  =      2 
    WLODVTH  =      1 
    LKU0     = 1.33e-007 
    WKU0     = 6.5e-007 
    PKU0     =      0 
    LKVTH0   = -1.68e-015 
    WKVTH0   = 5e-007 
    PKVTH0   =      0 
    STK2     = 4e-010 
    LODK2    =      2 
    STETA0   =      0 
    LODETA0  =      1 
    LXRCRG1  =      0 
    WXRCRG1  =      0 
    PXRCRG1  =      0 
    LXRCRG2  =      0 
    WXRCRG2  =      0 
    PXRCRG2  =      0 
 

    *** UCB's BSIM4.4.0 new diode model is activated. ***
    *** UCB's Diode Model Parameters ***

    JTSS         =      0 
    JTSSWS       =      0 
    JTSSWGS      =      0 
    JTSD         =      0 
    JTSSWD       =      0 
    JTSSWGD      =      0 
    NJTS         =     20 
    NJTSSW       =     20 
    NJTSSWG      =     20 
    XTSS         =   0.02 
    XTSSWS       =   0.02 
    XTSSWGS      =   0.02 
    XTSD         =   0.02 
    XTSSWD       =   0.02 
    XTSSWGD      =   0.02 
    TNJTS        =      0 
    TNJTSSW      =      0 
    TNJTSSWG     =      0 
    VFBSDOFF     =      0 
    LVFBSDOFF    =      0 
    WVFBSDOFF    =      0 
    PVFBSDOFF    =      0 
    LINTNOI      =      0 
    VTSS         =     10 
    VTSD         =     10 
    VTSSWS       =     10 
    VTSSWD       =     10 
    VTSSWGS      =     10 
    VTSSWGD      =     10 
    TTDIOMOD     =      1 
 

 

 **warning** the following singular supplies were terminated to 1 meg resistor 
   supply       node1            node2
  vph1                    0:ph1              defined in subckt 0                     0:0                defined in subckt 0               
  vph2                    0:ph2              defined in subckt 0                     0:0                defined in subckt 0               
      
1****** HSPICE -- A-2008.03 32-BIT (Feb 26 2008) winnt ******                   
 ******  
 transiaent simulation of a nmos input single-ende diff pair                    
  ******  operating point information      tnom=  25.000 temp=  25.000          
 ******  
 ***** operating point status is voltage   simulation time is     0.     
    node    =voltage      node    =voltage      node    =voltage

 +0:1       = 726.4364m 0:2       = 825.8688m 0:3       = 510.2780m
 +0:4       = 514.0281m 0:5       = 514.0281m 0:dd      =   1.2000 
 +0:im0     = 515.6926m 0:input   =   0.      0:ph1     =   0.     
 +0:ph2     =   0.      0:ss      =   0.      0:v0      = 299.2330m
 +0:vin+    = 300.0000m 0:vin-    = 300.4351m 0:vout    = 599.2330m
 +0:vp1+    =   0.      0:vp1-    =   0.      0:vp2+    =   0.     
 +0:vp2-    =   0.     


          ***** job concluded
1****** HSPICE -- A-2008.03 32-BIT (Feb 26 2008) winnt ******                   
 ******  
 transiaent simulation of a nmos input single-ende diff pair                    
  ******  job statistics summary           tnom=  25.000 temp=  25.000          
 ******  

           total memory used        384 kbytes

  # nodes =      20 # elements=      32
  # diodes=       0 # bjts    =       0 # jfets   =       0 # mosfets =      14
  # va device =       0

    analysis           time    # points   tot. iter  conv.iter

    op point           0.00           1          14
    transient          0.12        1801         883         389 rev=        76
    readin             0.20
    errchk             0.03
    setup              0.02
    output             0.00
           total cpu time          0.40 seconds
           total elapsed time         1 seconds
               job started at  05:35:32 06/24/2019
               job ended   at  05:35:32 06/24/2019


 Init: hspice initialization file: D:\synopsys\Hspice_A-2008.03\hspice.ini
